<nodes>
    <node id="east_input" x="420" y="0"/>
    <node id="east_interface" x="120" y="0"/>
    <node id="west_input" x="-420" y="0"/>
    <node id="west_interface" x="-120" y="0"/>
    <node id="south_input" x="0" y="-420"/>
    <node id="south_interface" x="0" y="-120"/>
    <node id="north_input" x="0" y="420"/>
    <node id="north_interface" x="0" y="120"/>
    <node id="SmartMetro" x="0" y="0" type="traffic_light"/>
</nodes>