<routes>
        <vType vClass="private" sigma="0.5" lcStrategic="1.0" jmIgnoreKeepClearTime="0"        id="CAV_left" decel="4.5" color="0,255,0" carFollowModel="IDM" accel="3.0" xmlns:maxSpeed="40.0" xmlns:length="5"/>
        
        <vType vClass="custom1" sigma="0.5" lcStrategic="1.0" jmIgnoreKeepClearTime="0"        id="CAV_through" decel="4.5" color="24,116,205" carFollowModel="IDM" accel="3.0" xmlns:maxSpeed="40.0" xmlns:length="5"/>
        
        <vType vClass="custom2" sigma="0.5" lcStrategic="1.0" jmIgnoreKeepClearTime="0"        id="CAV_right" decel="4.5" color="218,112,214" carFollowModel="IDM" accel="3.0" xmlns:maxSpeed="40.0" xmlns:length="5"/>
        
        <route id="EN" edges="east_u east_c north_out" />
        <route id="EW" edges="east_u east_c west_out" />
        <route id="ES" edges="east_u east_c south_out" />
        <route id="NW" edges="north_u north_c west_out" />
        <route id="NS" edges="north_u north_c south_out" />
        <route id="NE" edges="north_u north_c east_out" />
        <route id="WS" edges="west_u west_c south_out" />
        <route id="WE" edges="west_u west_c east_out" />
        <route id="WN" edges="west_u west_c north_out" />
        <route id="SE" edges="south_u south_c east_out" />
        <route id="SN" edges="south_u south_c north_out" />
        <route id="SW" edges="south_u south_c west_out" />
        
    <vehicle id="0" type="CAV_right" route="EN" depart="0" />
    <vehicle id="1" type="CAV_through" route="EW" depart="1" />
    <vehicle id="2" type="CAV_through" route="NS" depart="1" />
    <vehicle id="3" type="CAV_right" route="NW" depart="2" />
    <vehicle id="4" type="CAV_through" route="NS" depart="2" />
    <vehicle id="5" type="CAV_left" route="NE" depart="2" />
    <vehicle id="6" type="CAV_through" route="NS" depart="4" />
    <vehicle id="7" type="CAV_left" route="NE" depart="4" />
    <vehicle id="8" type="CAV_through" route="WE" depart="4" />
    <vehicle id="9" type="CAV_left" route="SW" depart="4" />
    <vehicle id="10" type="CAV_right" route="EN" depart="5" />
    <vehicle id="11" type="CAV_right" route="SE" depart="6" />
    <vehicle id="12" type="CAV_through" route="SN" depart="6" />
    <vehicle id="13" type="CAV_right" route="SE" depart="8" />
    <vehicle id="14" type="CAV_right" route="EN" depart="9" />
    <vehicle id="15" type="CAV_left" route="ES" depart="10" />
    <vehicle id="16" type="CAV_through" route="EW" depart="11" />
    <vehicle id="17" type="CAV_left" route="NE" depart="11" />
    <vehicle id="18" type="CAV_left" route="NE" depart="12" />
    <vehicle id="19" type="CAV_left" route="NE" depart="15" />
    <vehicle id="20" type="CAV_right" route="NW" depart="16" />
    <vehicle id="21" type="CAV_right" route="SE" depart="16" />
    <vehicle id="22" type="CAV_right" route="NW" depart="18" />
    <vehicle id="23" type="CAV_through" route="NS" depart="20" />
    <vehicle id="24" type="CAV_right" route="EN" depart="24" />
    <vehicle id="25" type="CAV_right" route="EN" depart="26" />
    <vehicle id="26" type="CAV_through" route="EW" depart="26" />
    <vehicle id="27" type="CAV_through" route="NS" depart="26" />
    <vehicle id="28" type="CAV_right" route="SE" depart="26" />
    <vehicle id="29" type="CAV_through" route="SN" depart="26" />
    <vehicle id="30" type="CAV_right" route="EN" depart="27" />
    <vehicle id="31" type="CAV_left" route="ES" depart="27" />
    <vehicle id="32" type="CAV_through" route="NS" depart="27" />
    <vehicle id="33" type="CAV_through" route="EW" depart="28" />
    <vehicle id="34" type="CAV_left" route="NE" depart="29" />
    <vehicle id="35" type="CAV_left" route="ES" depart="30" />
    <vehicle id="36" type="CAV_through" route="NS" depart="30" />
    <vehicle id="37" type="CAV_left" route="SW" depart="30" />
    <vehicle id="38" type="CAV_through" route="NS" depart="31" />
    <vehicle id="39" type="CAV_right" route="NW" depart="32" />
    <vehicle id="40" type="CAV_through" route="NS" depart="33" />
    <vehicle id="41" type="CAV_through" route="EW" depart="36" />
    <vehicle id="42" type="CAV_right" route="NW" depart="37" />
    <vehicle id="43" type="CAV_through" route="EW" depart="38" />
    <vehicle id="44" type="CAV_left" route="WN" depart="41" />
    <vehicle id="45" type="CAV_left" route="NE" depart="44" />
    <vehicle id="46" type="CAV_through" route="WE" depart="44" />
    <vehicle id="47" type="CAV_left" route="ES" depart="45" />
    <vehicle id="48" type="CAV_left" route="NE" depart="45" />
    <vehicle id="49" type="CAV_through" route="EW" depart="51" />
    <vehicle id="50" type="CAV_left" route="ES" depart="51" />
    <vehicle id="51" type="CAV_right" route="EN" depart="52" />
    <vehicle id="52" type="CAV_left" route="WN" depart="52" />
    <vehicle id="53" type="CAV_left" route="ES" depart="53" />
    <vehicle id="54" type="CAV_left" route="ES" depart="54" />
    <vehicle id="55" type="CAV_left" route="SW" depart="54" />
    <vehicle id="56" type="CAV_through" route="SN" depart="55" />
    <vehicle id="57" type="CAV_left" route="WN" depart="58" />
    <vehicle id="58" type="CAV_right" route="SE" depart="58" />
    <vehicle id="59" type="CAV_right" route="EN" depart="59" />
    <vehicle id="60" type="CAV_right" route="WS" depart="60" />
    <vehicle id="61" type="CAV_left" route="SW" depart="60" />
    <vehicle id="62" type="CAV_through" route="EW" depart="64" />
    <vehicle id="63" type="CAV_right" route="SE" depart="64" />
    <vehicle id="64" type="CAV_through" route="SN" depart="67" />
    <vehicle id="65" type="CAV_left" route="ES" depart="68" />
    <vehicle id="66" type="CAV_left" route="NE" depart="70" />
    <vehicle id="67" type="CAV_left" route="ES" depart="71" />
    <vehicle id="68" type="CAV_through" route="EW" depart="72" />
    <vehicle id="69" type="CAV_right" route="WS" depart="73" />
    <vehicle id="70" type="CAV_right" route="WS" depart="76" />
    <vehicle id="71" type="CAV_through" route="WE" depart="76" />
    <vehicle id="72" type="CAV_through" route="NS" depart="77" />
    <vehicle id="73" type="CAV_through" route="WE" depart="77" />
    <vehicle id="74" type="CAV_left" route="WN" depart="77" />
    <vehicle id="75" type="CAV_right" route="NW" depart="78" />
    <vehicle id="76" type="CAV_left" route="SW" depart="79" />
    <vehicle id="77" type="CAV_right" route="NW" depart="83" />
    <vehicle id="78" type="CAV_through" route="EW" depart="84" />
    <vehicle id="79" type="CAV_right" route="WS" depart="84" />
    <vehicle id="80" type="CAV_right" route="EN" depart="85" />
    <vehicle id="81" type="CAV_right" route="NW" depart="85" />
    <vehicle id="82" type="CAV_through" route="SN" depart="86" />
    <vehicle id="83" type="CAV_right" route="SE" depart="88" />
    <vehicle id="84" type="CAV_left" route="SW" depart="88" />
    <vehicle id="85" type="CAV_through" route="NS" depart="89" />
    <vehicle id="86" type="CAV_left" route="SW" depart="92" />
    <vehicle id="87" type="CAV_through" route="WE" depart="96" />
    <vehicle id="88" type="CAV_left" route="WN" depart="97" />
    <vehicle id="89" type="CAV_right" route="EN" depart="98" />
    <vehicle id="90" type="CAV_through" route="SN" depart="98" />
    <vehicle id="91" type="CAV_right" route="NW" depart="99" />
    <vehicle id="92" type="CAV_through" route="WE" depart="99" />
    <vehicle id="93" type="CAV_through" route="SN" depart="101" />
    <vehicle id="94" type="CAV_left" route="ES" depart="102" />
    <vehicle id="95" type="CAV_through" route="SN" depart="102" />
    <vehicle id="96" type="CAV_through" route="NS" depart="105" />
    <vehicle id="97" type="CAV_left" route="WN" depart="106" />
    <vehicle id="98" type="CAV_through" route="SN" depart="112" />
    <vehicle id="99" type="CAV_left" route="NE" depart="113" />
    <vehicle id="100" type="CAV_right" route="NW" depart="114" />
    <vehicle id="101" type="CAV_right" route="WS" depart="114" />
    <vehicle id="102" type="CAV_through" route="NS" depart="116" />
    <vehicle id="103" type="CAV_through" route="WE" depart="116" />
    <vehicle id="104" type="CAV_right" route="SE" depart="117" />
    <vehicle id="105" type="CAV_left" route="SW" depart="118" />
    <vehicle id="106" type="CAV_left" route="WN" depart="121" />
    <vehicle id="107" type="CAV_through" route="EW" depart="124" />
    <vehicle id="108" type="CAV_left" route="NE" depart="126" />
    <vehicle id="109" type="CAV_right" route="EN" depart="127" />
    <vehicle id="110" type="CAV_right" route="EN" depart="128" />
    <vehicle id="111" type="CAV_left" route="ES" depart="128" />
    <vehicle id="112" type="CAV_left" route="NE" depart="128" />
    <vehicle id="113" type="CAV_right" route="EN" depart="130" />
    <vehicle id="114" type="CAV_right" route="NW" depart="130" />
    <vehicle id="115" type="CAV_left" route="NE" depart="131" />
    <vehicle id="116" type="CAV_right" route="EN" depart="132" />
    <vehicle id="117" type="CAV_through" route="EW" depart="132" />
    <vehicle id="118" type="CAV_left" route="ES" depart="133" />
    <vehicle id="119" type="CAV_right" route="NW" depart="133" />
    <vehicle id="120" type="CAV_left" route="WN" depart="135" />
    <vehicle id="121" type="CAV_right" route="EN" depart="136" />
    <vehicle id="122" type="CAV_left" route="WN" depart="136" />
    <vehicle id="123" type="CAV_right" route="EN" depart="137" />
    <vehicle id="124" type="CAV_right" route="EN" depart="139" />
    <vehicle id="125" type="CAV_left" route="WN" depart="139" />
    <vehicle id="126" type="CAV_left" route="NE" depart="140" />
    <vehicle id="127" type="CAV_through" route="WE" depart="143" />
    <vehicle id="128" type="CAV_right" route="SE" depart="143" />
    <vehicle id="129" type="CAV_through" route="EW" depart="144" />
    <vehicle id="130" type="CAV_right" route="NW" depart="144" />
    <vehicle id="131" type="CAV_through" route="EW" depart="146" />
    <vehicle id="132" type="CAV_through" route="NS" depart="147" />
    <vehicle id="133" type="CAV_through" route="EW" depart="148" />
    <vehicle id="134" type="CAV_through" route="NS" depart="150" />
    <vehicle id="135" type="CAV_right" route="WS" depart="151" />
    <vehicle id="136" type="CAV_left" route="ES" depart="157" />
    <vehicle id="137" type="CAV_left" route="SW" depart="157" />
    <vehicle id="138" type="CAV_right" route="SE" depart="158" />
    <vehicle id="139" type="CAV_left" route="NE" depart="159" />
    <vehicle id="140" type="CAV_left" route="SW" depart="159" />
    <vehicle id="141" type="CAV_left" route="ES" depart="161" />
    <vehicle id="142" type="CAV_through" route="NS" depart="161" />
    <vehicle id="143" type="CAV_right" route="NW" depart="162" />
    <vehicle id="144" type="CAV_through" route="NS" depart="162" />
    <vehicle id="145" type="CAV_through" route="SN" depart="165" />
    <vehicle id="146" type="CAV_right" route="SE" depart="166" />
    <vehicle id="147" type="CAV_left" route="ES" depart="168" />
    <vehicle id="148" type="CAV_left" route="SW" depart="172" />
    <vehicle id="149" type="CAV_left" route="NE" depart="173" />
    <vehicle id="150" type="CAV_through" route="NS" depart="175" />
    <vehicle id="151" type="CAV_left" route="SW" depart="176" />
    <vehicle id="152" type="CAV_right" route="NW" depart="178" />
    <vehicle id="153" type="CAV_through" route="SN" depart="179" />
    <vehicle id="154" type="CAV_right" route="WS" depart="180" />
    <vehicle id="155" type="CAV_through" route="EW" depart="181" />
    <vehicle id="156" type="CAV_left" route="NE" depart="182" />
    <vehicle id="157" type="CAV_left" route="ES" depart="183" />
    <vehicle id="158" type="CAV_left" route="NE" depart="183" />
    <vehicle id="159" type="CAV_right" route="SE" depart="183" />
    <vehicle id="160" type="CAV_through" route="EW" depart="184" />
    <vehicle id="161" type="CAV_through" route="NS" depart="184" />
    <vehicle id="162" type="CAV_right" route="WS" depart="184" />
    <vehicle id="163" type="CAV_through" route="EW" depart="188" />
    <vehicle id="164" type="CAV_right" route="EN" depart="189" />
    <vehicle id="165" type="CAV_left" route="SW" depart="189" />
    <vehicle id="166" type="CAV_through" route="NS" depart="192" />
    <vehicle id="167" type="CAV_through" route="WE" depart="197" />
    <vehicle id="168" type="CAV_through" route="SN" depart="201" />
    <vehicle id="169" type="CAV_right" route="NW" depart="202" />
    <vehicle id="170" type="CAV_left" route="WN" depart="202" />
    <vehicle id="171" type="CAV_right" route="NW" depart="203" />
    <vehicle id="172" type="CAV_left" route="ES" depart="205" />
    <vehicle id="173" type="CAV_right" route="EN" depart="206" />
    <vehicle id="174" type="CAV_left" route="WN" depart="206" />
    <vehicle id="175" type="CAV_right" route="NW" depart="209" />
    <vehicle id="176" type="CAV_right" route="WS" depart="209" />
    <vehicle id="177" type="CAV_right" route="EN" depart="210" />
    <vehicle id="178" type="CAV_left" route="ES" depart="212" />
    <vehicle id="179" type="CAV_right" route="EN" depart="214" />
    <vehicle id="180" type="CAV_right" route="WS" depart="214" />
    <vehicle id="181" type="CAV_through" route="SN" depart="214" />
    <vehicle id="182" type="CAV_right" route="SE" depart="216" />
    <vehicle id="183" type="CAV_through" route="EW" depart="217" />
    <vehicle id="184" type="CAV_right" route="NW" depart="217" />
    <vehicle id="185" type="CAV_right" route="SE" depart="218" />
    <vehicle id="186" type="CAV_left" route="SW" depart="218" />
    <vehicle id="187" type="CAV_right" route="NW" depart="220" />
    <vehicle id="188" type="CAV_left" route="WN" depart="220" />
    <vehicle id="189" type="CAV_through" route="SN" depart="220" />
    <vehicle id="190" type="CAV_left" route="ES" depart="221" />
    <vehicle id="191" type="CAV_through" route="EW" depart="222" />
    <vehicle id="192" type="CAV_through" route="NS" depart="222" />
    <vehicle id="193" type="CAV_right" route="SE" depart="222" />
    <vehicle id="194" type="CAV_left" route="SW" depart="222" />
    <vehicle id="195" type="CAV_through" route="NS" depart="223" />
    <vehicle id="196" type="CAV_through" route="EW" depart="224" />
    <vehicle id="197" type="CAV_through" route="WE" depart="226" />
    <vehicle id="198" type="CAV_through" route="NS" depart="227" />
    <vehicle id="199" type="CAV_right" route="NW" depart="228" />
    <vehicle id="200" type="CAV_left" route="NE" depart="228" />
    <vehicle id="201" type="CAV_right" route="EN" depart="229" />
    <vehicle id="202" type="CAV_through" route="EW" depart="229" />
    <vehicle id="203" type="CAV_through" route="WE" depart="229" />
    <vehicle id="204" type="CAV_right" route="EN" depart="235" />
    <vehicle id="205" type="CAV_left" route="ES" depart="237" />
    <vehicle id="206" type="CAV_left" route="ES" depart="238" />
    <vehicle id="207" type="CAV_through" route="EW" depart="239" />
    <vehicle id="208" type="CAV_right" route="EN" depart="240" />
    <vehicle id="209" type="CAV_through" route="EW" depart="240" />
    <vehicle id="210" type="CAV_left" route="WN" depart="241" />
    <vehicle id="211" type="CAV_right" route="SE" depart="243" />
    <vehicle id="212" type="CAV_left" route="SW" depart="244" />
    <vehicle id="213" type="CAV_left" route="WN" depart="245" />
    <vehicle id="214" type="CAV_right" route="NW" depart="247" />
    <vehicle id="215" type="CAV_right" route="NW" depart="249" />
    <vehicle id="216" type="CAV_left" route="SW" depart="251" />
    <vehicle id="217" type="CAV_right" route="NW" depart="253" />
    <vehicle id="218" type="CAV_through" route="EW" depart="255" />
    <vehicle id="219" type="CAV_right" route="NW" depart="255" />
    <vehicle id="220" type="CAV_left" route="WN" depart="257" />
    <vehicle id="221" type="CAV_left" route="ES" depart="258" />
    <vehicle id="222" type="CAV_left" route="WN" depart="258" />
    <vehicle id="223" type="CAV_right" route="NW" depart="259" />
    <vehicle id="224" type="CAV_through" route="WE" depart="259" />
    <vehicle id="225" type="CAV_right" route="SE" depart="259" />
    <vehicle id="226" type="CAV_left" route="ES" depart="261" />
    <vehicle id="227" type="CAV_through" route="NS" depart="264" />
    <vehicle id="228" type="CAV_through" route="SN" depart="264" />
    <vehicle id="229" type="CAV_through" route="NS" depart="266" />
    <vehicle id="230" type="CAV_left" route="SW" depart="266" />
    <vehicle id="231" type="CAV_left" route="NE" depart="269" />
    <vehicle id="232" type="CAV_left" route="WN" depart="269" />
    <vehicle id="233" type="CAV_through" route="EW" depart="270" />
    <vehicle id="234" type="CAV_left" route="NE" depart="271" />
    <vehicle id="235" type="CAV_right" route="NW" depart="272" />
    <vehicle id="236" type="CAV_through" route="EW" depart="274" />
    <vehicle id="237" type="CAV_through" route="NS" depart="276" />
    <vehicle id="238" type="CAV_right" route="WS" depart="279" />
    <vehicle id="239" type="CAV_left" route="SW" depart="279" />
    <vehicle id="240" type="CAV_through" route="WE" depart="282" />
    <vehicle id="241" type="CAV_right" route="NW" depart="284" />
    <vehicle id="242" type="CAV_left" route="WN" depart="284" />
    <vehicle id="243" type="CAV_left" route="NE" depart="287" />
    <vehicle id="244" type="CAV_left" route="SW" depart="289" />
    <vehicle id="245" type="CAV_right" route="SE" depart="290" />
    <vehicle id="246" type="CAV_through" route="WE" depart="291" />
    <vehicle id="247" type="CAV_left" route="ES" depart="293" />
    <vehicle id="248" type="CAV_left" route="SW" depart="293" />
    <vehicle id="249" type="CAV_through" route="EW" depart="295" />
    <vehicle id="250" type="CAV_through" route="EW" depart="296" />
    <vehicle id="251" type="CAV_right" route="SE" depart="298" />
    <vehicle id="252" type="CAV_right" route="NW" depart="299" />
    <vehicle id="253" type="CAV_right" route="EN" depart="300" />
    <vehicle id="254" type="CAV_through" route="WE" depart="300" />
    <vehicle id="255" type="CAV_right" route="EN" depart="302" />
    <vehicle id="256" type="CAV_left" route="ES" depart="302" />
    <vehicle id="257" type="CAV_right" route="EN" depart="306" />
    <vehicle id="258" type="CAV_through" route="NS" depart="306" />
    <vehicle id="259" type="CAV_right" route="EN" depart="307" />
    <vehicle id="260" type="CAV_through" route="EW" depart="311" />
    <vehicle id="261" type="CAV_through" route="EW" depart="312" />
    <vehicle id="262" type="CAV_through" route="WE" depart="313" />
    <vehicle id="263" type="CAV_left" route="NE" depart="314" />
    <vehicle id="264" type="CAV_through" route="EW" depart="315" />
    <vehicle id="265" type="CAV_left" route="ES" depart="315" />
    <vehicle id="266" type="CAV_left" route="ES" depart="316" />
    <vehicle id="267" type="CAV_left" route="WN" depart="316" />
    <vehicle id="268" type="CAV_left" route="WN" depart="317" />
    <vehicle id="269" type="CAV_through" route="EW" depart="319" />
    <vehicle id="270" type="CAV_left" route="ES" depart="321" />
    <vehicle id="271" type="CAV_through" route="WE" depart="321" />
    <vehicle id="272" type="CAV_left" route="WN" depart="321" />
    <vehicle id="273" type="CAV_right" route="NW" depart="322" />
    <vehicle id="274" type="CAV_left" route="SW" depart="323" />
    <vehicle id="275" type="CAV_right" route="EN" depart="324" />
    <vehicle id="276" type="CAV_right" route="NW" depart="324" />
    <vehicle id="277" type="CAV_right" route="NW" depart="325" />
    <vehicle id="278" type="CAV_right" route="EN" depart="327" />
    <vehicle id="279" type="CAV_left" route="SW" depart="328" />
    <vehicle id="280" type="CAV_through" route="WE" depart="330" />
    <vehicle id="281" type="CAV_right" route="EN" depart="331" />
    <vehicle id="282" type="CAV_through" route="NS" depart="331" />
    <vehicle id="283" type="CAV_right" route="WS" depart="333" />
    <vehicle id="284" type="CAV_through" route="EW" depart="335" />
    <vehicle id="285" type="CAV_right" route="NW" depart="335" />
    <vehicle id="286" type="CAV_right" route="SE" depart="337" />
    <vehicle id="287" type="CAV_left" route="ES" depart="338" />
    <vehicle id="288" type="CAV_through" route="SN" depart="338" />
    <vehicle id="289" type="CAV_right" route="EN" depart="340" />
    <vehicle id="290" type="CAV_right" route="EN" depart="341" />
    <vehicle id="291" type="CAV_left" route="SW" depart="342" />
    <vehicle id="292" type="CAV_through" route="NS" depart="343" />
    <vehicle id="293" type="CAV_through" route="WE" depart="344" />
    <vehicle id="294" type="CAV_through" route="SN" depart="347" />
    <vehicle id="295" type="CAV_through" route="NS" depart="348" />
    <vehicle id="296" type="CAV_through" route="EW" depart="353" />
    <vehicle id="297" type="CAV_through" route="SN" depart="353" />
    <vehicle id="298" type="CAV_through" route="EW" depart="354" />
    <vehicle id="299" type="CAV_through" route="NS" depart="355" />
    <vehicle id="300" type="CAV_right" route="EN" depart="356" />
    <vehicle id="301" type="CAV_right" route="WS" depart="356" />
    <vehicle id="302" type="CAV_through" route="EW" depart="358" />
    <vehicle id="303" type="CAV_left" route="NE" depart="358" />
    <vehicle id="304" type="CAV_left" route="ES" depart="359" />
    <vehicle id="305" type="CAV_right" route="EN" depart="362" />
    <vehicle id="306" type="CAV_through" route="EW" depart="363" />
    <vehicle id="307" type="CAV_right" route="NW" depart="363" />
    <vehicle id="308" type="CAV_left" route="ES" depart="365" />
    <vehicle id="309" type="CAV_left" route="SW" depart="365" />
    <vehicle id="310" type="CAV_through" route="SN" depart="368" />
    <vehicle id="311" type="CAV_right" route="NW" depart="369" />
    <vehicle id="312" type="CAV_right" route="EN" depart="372" />
    <vehicle id="313" type="CAV_through" route="NS" depart="372" />
    <vehicle id="314" type="CAV_through" route="SN" depart="372" />
    <vehicle id="315" type="CAV_right" route="NW" depart="373" />
    <vehicle id="316" type="CAV_through" route="NS" depart="374" />
    <vehicle id="317" type="CAV_through" route="WE" depart="374" />
    <vehicle id="318" type="CAV_left" route="WN" depart="374" />
    <vehicle id="319" type="CAV_through" route="EW" depart="375" />
    <vehicle id="320" type="CAV_left" route="NE" depart="376" />
    <vehicle id="321" type="CAV_through" route="NS" depart="377" />
    <vehicle id="322" type="CAV_through" route="SN" depart="377" />
    <vehicle id="323" type="CAV_right" route="NW" depart="379" />
    <vehicle id="324" type="CAV_left" route="WN" depart="380" />
    <vehicle id="325" type="CAV_left" route="NE" depart="382" />
    <vehicle id="326" type="CAV_right" route="WS" depart="383" />
    <vehicle id="327" type="CAV_through" route="EW" depart="384" />
    <vehicle id="328" type="CAV_right" route="WS" depart="384" />
    <vehicle id="329" type="CAV_right" route="EN" depart="385" />
    <vehicle id="330" type="CAV_through" route="NS" depart="385" />
    <vehicle id="331" type="CAV_right" route="NW" depart="387" />
    <vehicle id="332" type="CAV_through" route="NS" depart="387" />
    <vehicle id="333" type="CAV_right" route="WS" depart="388" />
    <vehicle id="334" type="CAV_through" route="SN" depart="388" />
    <vehicle id="335" type="CAV_through" route="NS" depart="389" />
    <vehicle id="336" type="CAV_through" route="EW" depart="392" />
    <vehicle id="337" type="CAV_left" route="ES" depart="392" />
    <vehicle id="338" type="CAV_right" route="WS" depart="394" />
    <vehicle id="339" type="CAV_through" route="NS" depart="396" />
    <vehicle id="340" type="CAV_left" route="SW" depart="396" />
    <vehicle id="341" type="CAV_left" route="ES" depart="398" />
    <vehicle id="342" type="CAV_through" route="NS" depart="398" />
    <vehicle id="343" type="CAV_left" route="NE" depart="398" />
    <vehicle id="344" type="CAV_through" route="NS" depart="400" />
    <vehicle id="345" type="CAV_through" route="SN" depart="400" />
    <vehicle id="346" type="CAV_right" route="EN" depart="401" />
    <vehicle id="347" type="CAV_through" route="EW" depart="402" />
    <vehicle id="348" type="CAV_through" route="SN" depart="403" />
    <vehicle id="349" type="CAV_left" route="NE" depart="404" />
    <vehicle id="350" type="CAV_left" route="WN" depart="405" />
    <vehicle id="351" type="CAV_left" route="WN" depart="410" />
    <vehicle id="352" type="CAV_left" route="SW" depart="410" />
    <vehicle id="353" type="CAV_through" route="EW" depart="411" />
    <vehicle id="354" type="CAV_right" route="EN" depart="412" />
    <vehicle id="355" type="CAV_right" route="WS" depart="413" />
    <vehicle id="356" type="CAV_left" route="SW" depart="413" />
    <vehicle id="357" type="CAV_left" route="NE" depart="417" />
    <vehicle id="358" type="CAV_through" route="SN" depart="417" />
    <vehicle id="359" type="CAV_right" route="NW" depart="418" />
    <vehicle id="360" type="CAV_left" route="SW" depart="418" />
    <vehicle id="361" type="CAV_through" route="SN" depart="420" />
    <vehicle id="362" type="CAV_left" route="SW" depart="420" />
    <vehicle id="363" type="CAV_left" route="NE" depart="421" />
    <vehicle id="364" type="CAV_left" route="SW" depart="421" />
    <vehicle id="365" type="CAV_through" route="SN" depart="422" />
    <vehicle id="366" type="CAV_left" route="SW" depart="423" />
    <vehicle id="367" type="CAV_right" route="WS" depart="424" />
    <vehicle id="368" type="CAV_right" route="SE" depart="424" />
    <vehicle id="369" type="CAV_through" route="NS" depart="425" />
    <vehicle id="370" type="CAV_right" route="SE" depart="425" />
    <vehicle id="371" type="CAV_left" route="NE" depart="428" />
    <vehicle id="372" type="CAV_left" route="WN" depart="428" />
    <vehicle id="373" type="CAV_left" route="ES" depart="429" />
    <vehicle id="374" type="CAV_left" route="WN" depart="429" />
    <vehicle id="375" type="CAV_left" route="NE" depart="431" />
    <vehicle id="376" type="CAV_through" route="WE" depart="433" />
    <vehicle id="377" type="CAV_left" route="NE" depart="434" />
    <vehicle id="378" type="CAV_through" route="WE" depart="434" />
    <vehicle id="379" type="CAV_left" route="WN" depart="434" />
    <vehicle id="380" type="CAV_right" route="SE" depart="434" />
    <vehicle id="381" type="CAV_left" route="ES" depart="435" />
    <vehicle id="382" type="CAV_through" route="NS" depart="435" />
    <vehicle id="383" type="CAV_through" route="WE" depart="435" />
    <vehicle id="384" type="CAV_left" route="ES" depart="439" />
    <vehicle id="385" type="CAV_through" route="NS" depart="439" />
    <vehicle id="386" type="CAV_through" route="EW" depart="440" />
    <vehicle id="387" type="CAV_left" route="NE" depart="440" />
    <vehicle id="388" type="CAV_through" route="SN" depart="441" />
    <vehicle id="389" type="CAV_through" route="EW" depart="442" />
    <vehicle id="390" type="CAV_through" route="WE" depart="442" />
    <vehicle id="391" type="CAV_through" route="WE" depart="444" />
    <vehicle id="392" type="CAV_left" route="ES" depart="446" />
    <vehicle id="393" type="CAV_through" route="EW" depart="447" />
    <vehicle id="394" type="CAV_left" route="NE" depart="448" />
    <vehicle id="395" type="CAV_right" route="EN" depart="449" />
    <vehicle id="396" type="CAV_through" route="NS" depart="449" />
    <vehicle id="397" type="CAV_right" route="SE" depart="450" />
    <vehicle id="398" type="CAV_left" route="WN" depart="453" />
    <vehicle id="399" type="CAV_left" route="WN" depart="454" />
    <vehicle id="400" type="CAV_left" route="WN" depart="455" />
    <vehicle id="401" type="CAV_right" route="EN" depart="456" />
    <vehicle id="402" type="CAV_through" route="WE" depart="457" />
    <vehicle id="403" type="CAV_through" route="WE" depart="459" />
    <vehicle id="404" type="CAV_right" route="NW" depart="460" />
    <vehicle id="405" type="CAV_left" route="NE" depart="460" />
    <vehicle id="406" type="CAV_left" route="NE" depart="462" />
    <vehicle id="407" type="CAV_right" route="NW" depart="463" />
    <vehicle id="408" type="CAV_left" route="NE" depart="463" />
    <vehicle id="409" type="CAV_left" route="WN" depart="463" />
    <vehicle id="410" type="CAV_right" route="EN" depart="466" />
    <vehicle id="411" type="CAV_through" route="EW" depart="471" />
    <vehicle id="412" type="CAV_through" route="EW" depart="472" />
    <vehicle id="413" type="CAV_left" route="WN" depart="472" />
    <vehicle id="414" type="CAV_right" route="WS" depart="474" />
    <vehicle id="415" type="CAV_left" route="WN" depart="474" />
    <vehicle id="416" type="CAV_left" route="ES" depart="475" />
    <vehicle id="417" type="CAV_left" route="SW" depart="475" />
    <vehicle id="418" type="CAV_left" route="ES" depart="476" />
    <vehicle id="419" type="CAV_left" route="NE" depart="476" />
    <vehicle id="420" type="CAV_right" route="NW" depart="478" />
    <vehicle id="421" type="CAV_through" route="NS" depart="479" />
    <vehicle id="422" type="CAV_left" route="ES" depart="482" />
    <vehicle id="423" type="CAV_left" route="NE" depart="483" />
    <vehicle id="424" type="CAV_right" route="EN" depart="484" />
    <vehicle id="425" type="CAV_left" route="SW" depart="484" />
    <vehicle id="426" type="CAV_right" route="EN" depart="485" />
    <vehicle id="427" type="CAV_through" route="EW" depart="488" />
    <vehicle id="428" type="CAV_left" route="NE" depart="489" />
    <vehicle id="429" type="CAV_through" route="WE" depart="489" />
    <vehicle id="430" type="CAV_left" route="ES" depart="490" />
    <vehicle id="431" type="CAV_right" route="WS" depart="490" />
    <vehicle id="432" type="CAV_through" route="SN" depart="491" />
    <vehicle id="433" type="CAV_right" route="EN" depart="492" />