<routes>
        <vType id="passenger_left" accel="0.8" decel="4.5" sigma="0.5" length="5" minGap="2.5" maxSpeed="16.67" guiShape="passenger"/>
        <vType id="passenger_through" accel="0.8" decel="4.5" sigma="0.5" length="5" minGap="2.5" maxSpeed="16.67" guiShape="passenger"/>
        <vType id="passenger_right" accel="0.8" decel="4.5" sigma="0.5" length="5" minGap="2.5" maxSpeed="16.67" guiShape="passenger"/>
        <vType id="bus_left" accel="0.8" decel="4.5" sigma="0.5" length="7" minGap="3" maxSpeed="25" guiShape="bus"/>
        <vType id="bus_through" accel="0.8" decel="4.5" sigma="0.5" length="7" minGap="3" maxSpeed="25" guiShape="bus"/>
        <vType id="bus_right" accel="0.8" decel="4.5" sigma="0.5" length="7" minGap="3" maxSpeed="25" guiShape="bus"/>
        <route id="EN" edges="east_u east_c north_out" />
        <route id="EW" edges="east_u east_c west_out" />
        <route id="ES" edges="east_u east_c south_out" />
        <route id="NW" edges="north_u north_c west_out" />
        <route id="NS" edges="north_u north_c south_out" />
        <route id="NE" edges="north_u north_c east_out" />
        <route id="WS" edges="west_u west_c south_out" />
        <route id="WE" edges="west_u west_c east_out" />
        <route id="WN" edges="west_u west_c north_out" />
        <route id="SE" edges="south_u south_c east_out" />
        <route id="SN" edges="south_u south_c north_out" />
        <route id="SW" edges="south_u south_c west_out" />
        
    <vehicle id="EW_0" type="passenger_through" route="EW" depart="0" />
    <vehicle id="SE_1" type="passenger_right" route="SE" depart="0" />
    <vehicle id="EN_2" type="passenger_right" route="EN" depart="1" />
    <vehicle id="WE_3" type="passenger_through" route="WE" depart="1" />
    <vehicle id="NE_4" type="passenger_left" route="NE" depart="3" />
    <vehicle id="WE_5" type="passenger_through" route="WE" depart="5" />
    <vehicle id="NE_6" type="passenger_left" route="NE" depart="7" />
    <vehicle id="NS_7" type="passenger_through" route="NS" depart="8" />
    <vehicle id="NS_8" type="passenger_through" route="NS" depart="10" />
    <vehicle id="WS_9" type="passenger_right" route="WS" depart="10" />
    <vehicle id="SW_10" type="passenger_left" route="SW" depart="10" />
    <vehicle id="NE_11" type="passenger_left" route="NE" depart="16" />
    <vehicle id="EN_12" type="passenger_right" route="EN" depart="21" />
    <vehicle id="NE_13" type="passenger_left" route="NE" depart="22" />
    <vehicle id="ES_14" type="passenger_left" route="ES" depart="24" />
    <vehicle id="SE_15" type="passenger_right" route="SE" depart="24" />
    <vehicle id="EN_16" type="passenger_right" route="EN" depart="27" />
    <vehicle id="WS_17" type="passenger_right" route="WS" depart="28" />
    <vehicle id="WN_18" type="passenger_left" route="WN" depart="30" />
    <vehicle id="SN_19" type="passenger_through" route="SN" depart="32" />
    <vehicle id="WE_20" type="passenger_through" route="WE" depart="34" />
    <vehicle id="WE_21" type="passenger_through" route="WE" depart="35" />
    <vehicle id="EW_22" type="passenger_through" route="EW" depart="39" />
    <vehicle id="EW_23" type="passenger_through" route="EW" depart="40" />
    <vehicle id="EW_24" type="passenger_through" route="EW" depart="41" />
    <vehicle id="SE_25" type="passenger_right" route="SE" depart="41" />
    <vehicle id="EN_26" type="passenger_right" route="EN" depart="42" />
    <vehicle id="EW_27" type="passenger_through" route="EW" depart="43" />
    <vehicle id="ES_28" type="passenger_left" route="ES" depart="43" />
    <vehicle id="EN_29" type="passenger_right" route="EN" depart="44" />
    <vehicle id="NW_30" type="passenger_right" route="NW" depart="45" />
    <vehicle id="EW_31" type="passenger_through" route="EW" depart="49" />
    <vehicle id="SN_32" type="passenger_through" route="SN" depart="49" />
    <vehicle id="EN_33" type="passenger_right" route="EN" depart="50" />
    <vehicle id="EW_34" type="passenger_through" route="EW" depart="53" />
    <vehicle id="SN_35" type="passenger_through" route="SN" depart="54" />
    <vehicle id="EN_36" type="passenger_right" route="EN" depart="57" />
    <vehicle id="WN_37" type="passenger_left" route="WN" depart="59" />
    <vehicle id="EN_38" type="passenger_right" route="EN" depart="60" />
    <vehicle id="WN_39" type="passenger_left" route="WN" depart="60" />
    <vehicle id="EW_40" type="passenger_through" route="EW" depart="68" />
    <vehicle id="SN_41" type="passenger_through" route="SN" depart="68" />
    <vehicle id="SW_42" type="passenger_left" route="SW" depart="70" />
    <vehicle id="EN_43" type="passenger_right" route="EN" depart="71" />
    <vehicle id="EN_44" type="passenger_right" route="EN" depart="72" />
    <vehicle id="WS_45" type="passenger_right" route="WS" depart="73" />
    <vehicle id="WN_46" type="passenger_left" route="WN" depart="75" />
    <vehicle id="WN_47" type="passenger_left" route="WN" depart="79" />
    <vehicle id="WS_48" type="passenger_right" route="WS" depart="80" />
    <vehicle id="SW_49" type="passenger_left" route="SW" depart="80" />
    <vehicle id="SW_50" type="passenger_left" route="SW" depart="82" />
    <vehicle id="NE_51" type="passenger_left" route="NE" depart="84" />
    <vehicle id="WS_52" type="passenger_right" route="WS" depart="85" />
    <vehicle id="EW_53" type="passenger_through" route="EW" depart="86" />
    <vehicle id="ES_54" type="passenger_left" route="ES" depart="86" />
    <vehicle id="WE_55" type="passenger_through" route="WE" depart="86" />
    <vehicle id="NE_56" type="passenger_left" route="NE" depart="87" />
    <vehicle id="SW_57" type="passenger_left" route="SW" depart="87" />
    <vehicle id="SE_58" type="passenger_right" route="SE" depart="93" />
    <vehicle id="NE_59" type="passenger_left" route="NE" depart="94" />
    <vehicle id="SW_60" type="passenger_left" route="SW" depart="94" />
    <vehicle id="EW_61" type="passenger_through" route="EW" depart="97" />
    <vehicle id="NS_62" type="passenger_through" route="NS" depart="97" />
    <vehicle id="SN_63" type="passenger_through" route="SN" depart="97" />
    <vehicle id="WN_64" type="passenger_left" route="WN" depart="98" />
    <vehicle id="SE_65" type="passenger_right" route="SE" depart="98" />
    <vehicle id="NE_66" type="passenger_left" route="NE" depart="99" />
    <vehicle id="EN_67" type="passenger_right" route="EN" depart="103" />
    <vehicle id="EW_68" type="passenger_through" route="EW" depart="105" />
    <vehicle id="ES_69" type="passenger_left" route="ES" depart="110" />
    <vehicle id="NE_70" type="passenger_left" route="NE" depart="114" />
    <vehicle id="WS_71" type="passenger_right" route="WS" depart="114" />
    <vehicle id="SW_72" type="passenger_left" route="SW" depart="114" />
    <vehicle id="SW_73" type="passenger_left" route="SW" depart="115" />
    <vehicle id="EN_74" type="passenger_right" route="EN" depart="116" />
    <vehicle id="NS_75" type="passenger_through" route="NS" depart="117" />
    <vehicle id="EW_76" type="passenger_through" route="EW" depart="118" />
    <vehicle id="EW_77" type="passenger_through" route="EW" depart="119" />
    <vehicle id="SE_78" type="passenger_right" route="SE" depart="119" />
    <vehicle id="SN_79" type="passenger_through" route="SN" depart="120" />
    <vehicle id="EN_80" type="passenger_right" route="EN" depart="121" />
    <vehicle id="EW_81" type="passenger_through" route="EW" depart="123" />
    <vehicle id="EW_82" type="passenger_through" route="EW" depart="124" />
    <vehicle id="NE_83" type="passenger_left" route="NE" depart="125" />
    <vehicle id="WN_84" type="passenger_left" route="WN" depart="129" />
    <vehicle id="SN_85" type="passenger_through" route="SN" depart="131" />
    <vehicle id="EN_86" type="passenger_right" route="EN" depart="134" />
    <vehicle id="EW_87" type="passenger_through" route="EW" depart="134" />
    <vehicle id="EW_88" type="passenger_through" route="EW" depart="138" />
    <vehicle id="WE_89" type="passenger_through" route="WE" depart="138" />
    <vehicle id="NE_90" type="passenger_left" route="NE" depart="143" />
    <vehicle id="WE_91" type="passenger_through" route="WE" depart="144" />
    <vehicle id="SN_92" type="passenger_through" route="SN" depart="144" />
    <vehicle id="WE_93" type="passenger_through" route="WE" depart="150" />
    <vehicle id="EN_94" type="passenger_right" route="EN" depart="153" />
    <vehicle id="ES_95" type="passenger_left" route="ES" depart="156" />
    <vehicle id="EN_96" type="passenger_right" route="EN" depart="159" />
    <vehicle id="EN_97" type="passenger_right" route="EN" depart="161" />
    <vehicle id="WE_98" type="passenger_through" route="WE" depart="161" />
    <vehicle id="NE_99" type="passenger_left" route="NE" depart="163" />
    <vehicle id="WS_100" type="passenger_right" route="WS" depart="163" />
    <vehicle id="SN_101" type="passenger_through" route="SN" depart="164" />
    <vehicle id="EW_102" type="passenger_through" route="EW" depart="165" />
    <vehicle id="SN_103" type="passenger_through" route="SN" depart="165" />
    <vehicle id="EN_104" type="passenger_right" route="EN" depart="167" />
    <vehicle id="SN_105" type="passenger_through" route="SN" depart="170" />
    <vehicle id="NW_106" type="passenger_right" route="NW" depart="175" />
    <vehicle id="EN_107" type="passenger_right" route="EN" depart="176" />
    <vehicle id="WN_108" type="passenger_left" route="WN" depart="176" />
    <vehicle id="SN_109" type="passenger_through" route="SN" depart="176" />
    <vehicle id="ES_110" type="passenger_left" route="ES" depart="177" />
    <vehicle id="NE_111" type="passenger_left" route="NE" depart="179" />
    <vehicle id="EN_112" type="passenger_right" route="EN" depart="180" />
    <vehicle id="ES_113" type="passenger_left" route="ES" depart="180" />
    <vehicle id="WE_114" type="passenger_through" route="WE" depart="180" />
    <vehicle id="EN_115" type="passenger_right" route="EN" depart="181" />
    <vehicle id="NE_116" type="passenger_left" route="NE" depart="183" />
    <vehicle id="EW_117" type="passenger_through" route="EW" depart="185" />
    <vehicle id="SN_118" type="passenger_through" route="SN" depart="185" />
    <vehicle id="EN_119" type="passenger_right" route="EN" depart="186" />
    <vehicle id="EW_120" type="passenger_through" route="EW" depart="192" />
    <vehicle id="WE_121" type="passenger_through" route="WE" depart="193" />
    <vehicle id="ES_122" type="passenger_left" route="ES" depart="194" />
    <vehicle id="ES_123" type="passenger_left" route="ES" depart="195" />
    <vehicle id="SW_124" type="passenger_left" route="SW" depart="197" />
    <vehicle id="EN_125" type="passenger_right" route="EN" depart="202" />
    <vehicle id="ES_126" type="passenger_left" route="ES" depart="202" />
    <vehicle id="EN_127" type="passenger_right" route="EN" depart="203" />
    <vehicle id="EW_128" type="passenger_through" route="EW" depart="203" />
    <vehicle id="NE_129" type="passenger_left" route="NE" depart="204" />
    <vehicle id="WN_130" type="passenger_left" route="WN" depart="209" />
    <vehicle id="SW_131" type="passenger_left" route="SW" depart="211" />
    <vehicle id="WE_132" type="passenger_through" route="WE" depart="213" />
    <vehicle id="EN_133" type="passenger_right" route="EN" depart="214" />
    <vehicle id="WE_134" type="passenger_through" route="WE" depart="215" />
    <vehicle id="EW_135" type="passenger_through" route="EW" depart="217" />
    <vehicle id="SE_136" type="passenger_right" route="SE" depart="219" />
    <vehicle id="EN_137" type="passenger_right" route="EN" depart="220" />
    <vehicle id="EW_138" type="passenger_through" route="EW" depart="220" />
    <vehicle id="EW_139" type="passenger_through" route="EW" depart="222" />
    <vehicle id="SW_140" type="passenger_left" route="SW" depart="223" />
    <vehicle id="NE_141" type="passenger_left" route="NE" depart="225" />
    <vehicle id="SW_142" type="passenger_left" route="SW" depart="227" />
    <vehicle id="EN_143" type="passenger_right" route="EN" depart="229" />
    <vehicle id="WE_144" type="passenger_through" route="WE" depart="229" />
    <vehicle id="EW_145" type="passenger_through" route="EW" depart="231" />
    <vehicle id="SW_146" type="passenger_left" route="SW" depart="233" />
    <vehicle id="SE_147" type="passenger_right" route="SE" depart="234" />
    <vehicle id="NE_148" type="passenger_left" route="NE" depart="235" />
    <vehicle id="NS_149" type="passenger_through" route="NS" depart="236" />
    <vehicle id="EN_150" type="passenger_right" route="EN" depart="237" />
    <vehicle id="WS_151" type="passenger_right" route="WS" depart="237" />
    <vehicle id="EW_152" type="passenger_through" route="EW" depart="238" />
    <vehicle id="NE_153" type="passenger_left" route="NE" depart="240" />
    <vehicle id="NE_154" type="passenger_left" route="NE" depart="242" />
    <vehicle id="WN_155" type="passenger_left" route="WN" depart="243" />
    <vehicle id="NS_156" type="passenger_through" route="NS" depart="244" />
    <vehicle id="NW_157" type="passenger_right" route="NW" depart="247" />
    <vehicle id="ES_158" type="passenger_left" route="ES" depart="249" />
    <vehicle id="WE_159" type="passenger_through" route="WE" depart="251" />
    <vehicle id="WE_160" type="passenger_through" route="WE" depart="253" />
    <vehicle id="SE_161" type="passenger_right" route="SE" depart="260" />
    <vehicle id="ES_162" type="passenger_left" route="ES" depart="261" />
    <vehicle id="SE_163" type="passenger_right" route="SE" depart="261" />
    <vehicle id="ES_164" type="passenger_left" route="ES" depart="264" />
    <vehicle id="NW_165" type="passenger_right" route="NW" depart="265" />
    <vehicle id="EN_166" type="passenger_right" route="EN" depart="267" />
    <vehicle id="NW_167" type="passenger_right" route="NW" depart="267" />
    <vehicle id="WE_168" type="passenger_through" route="WE" depart="267" />
    <vehicle id="NS_169" type="passenger_through" route="NS" depart="271" />
    <vehicle id="SN_170" type="passenger_through" route="SN" depart="274" />
    <vehicle id="EW_171" type="passenger_through" route="EW" depart="276" />
    <vehicle id="ES_172" type="passenger_left" route="ES" depart="277" />
    <vehicle id="NE_173" type="passenger_left" route="NE" depart="277" />
    <vehicle id="NE_174" type="passenger_left" route="NE" depart="280" />
    <vehicle id="EW_175" type="passenger_through" route="EW" depart="281" />
    <vehicle id="NE_176" type="passenger_left" route="NE" depart="283" />
    <vehicle id="SN_177" type="passenger_through" route="SN" depart="283" />
    <vehicle id="NW_178" type="passenger_right" route="NW" depart="285" />
    <vehicle id="SN_179" type="passenger_through" route="SN" depart="285" />
    <vehicle id="NE_180" type="passenger_left" route="NE" depart="288" />
    <vehicle id="EW_181" type="passenger_through" route="EW" depart="289" />
    <vehicle id="SW_182" type="passenger_left" route="SW" depart="290" />
    <vehicle id="EW_183" type="passenger_through" route="EW" depart="293" />
    <vehicle id="SW_184" type="passenger_left" route="SW" depart="293" />
    <vehicle id="NE_185" type="passenger_left" route="NE" depart="297" />
    <vehicle id="EN_186" type="passenger_right" route="EN" depart="302" />
    <vehicle id="EN_187" type="passenger_right" route="EN" depart="303" />
    <vehicle id="WE_188" type="passenger_through" route="WE" depart="304" />
    <vehicle id="EW_189" type="passenger_through" route="EW" depart="308" />
    <vehicle id="NS_190" type="passenger_through" route="NS" depart="309" />
    <vehicle id="SW_191" type="passenger_left" route="SW" depart="310" />
    <vehicle id="WE_192" type="passenger_through" route="WE" depart="311" />
    <vehicle id="EN_193" type="passenger_right" route="EN" depart="313" />
    <vehicle id="EW_194" type="passenger_through" route="EW" depart="313" />
    <vehicle id="SN_195" type="passenger_through" route="SN" depart="313" />
    <vehicle id="SE_196" type="passenger_right" route="SE" depart="316" />
    <vehicle id="NS_197" type="passenger_through" route="NS" depart="320" />
    <vehicle id="EW_198" type="passenger_through" route="EW" depart="322" />
    <vehicle id="NW_199" type="passenger_right" route="NW" depart="322" />
    <vehicle id="NE_200" type="passenger_left" route="NE" depart="322" />
    <vehicle id="WS_201" type="passenger_right" route="WS" depart="325" />
    <vehicle id="EN_202" type="passenger_right" route="EN" depart="326" />
    <vehicle id="NE_203" type="passenger_left" route="NE" depart="329" />
    <vehicle id="WS_204" type="passenger_right" route="WS" depart="329" />
    <vehicle id="SN_205" type="passenger_through" route="SN" depart="329" />
    <vehicle id="EN_206" type="passenger_right" route="EN" depart="330" />
    <vehicle id="WS_207" type="passenger_right" route="WS" depart="330" />
    <vehicle id="EW_208" type="passenger_through" route="EW" depart="333" />
    <vehicle id="ES_209" type="passenger_left" route="ES" depart="334" />
    <vehicle id="EN_210" type="passenger_right" route="EN" depart="335" />
    <vehicle id="EW_211" type="passenger_through" route="EW" depart="336" />
    <vehicle id="NW_212" type="passenger_right" route="NW" depart="339" />
    <vehicle id="SW_213" type="passenger_left" route="SW" depart="339" />
    <vehicle id="ES_214" type="passenger_left" route="ES" depart="341" />
    <vehicle id="WE_215" type="passenger_through" route="WE" depart="341" />
    <vehicle id="SE_216" type="passenger_right" route="SE" depart="341" />
    <vehicle id="ES_217" type="passenger_left" route="ES" depart="345" />
    <vehicle id="EN_218" type="passenger_right" route="EN" depart="346" />
    <vehicle id="WE_219" type="passenger_through" route="WE" depart="348" />
    <vehicle id="WN_220" type="passenger_left" route="WN" depart="350" />
    <vehicle id="EN_221" type="passenger_right" route="EN" depart="355" />
    <vehicle id="EN_222" type="passenger_right" route="EN" depart="357" />
    <vehicle id="NW_223" type="passenger_right" route="NW" depart="358" />
    <vehicle id="SW_224" type="passenger_left" route="SW" depart="358" />
    <vehicle id="ES_225" type="passenger_left" route="ES" depart="359" />
    <vehicle id="NS_226" type="passenger_through" route="NS" depart="360" />
    <vehicle id="WS_227" type="passenger_right" route="WS" depart="362" />
    <vehicle id="SW_228" type="passenger_left" route="SW" depart="362" />
    <vehicle id="NW_229" type="passenger_right" route="NW" depart="363" />
    <vehicle id="WE_230" type="passenger_through" route="WE" depart="363" />
    <vehicle id="SW_231" type="passenger_left" route="SW" depart="365" />
    <vehicle id="EN_232" type="passenger_right" route="EN" depart="366" />
    <vehicle id="SE_233" type="passenger_right" route="SE" depart="368" />
    <vehicle id="WE_234" type="passenger_through" route="WE" depart="369" />
    <vehicle id="SW_235" type="passenger_left" route="SW" depart="370" />
    <vehicle id="EN_236" type="passenger_right" route="EN" depart="371" />
    <vehicle id="EN_237" type="passenger_right" route="EN" depart="372" />
    <vehicle id="SE_238" type="passenger_right" route="SE" depart="374" />
    <vehicle id="EW_239" type="passenger_through" route="EW" depart="375" />
    <vehicle id="EW_240" type="passenger_through" route="EW" depart="378" />
    <vehicle id="SW_241" type="passenger_left" route="SW" depart="378" />
    <vehicle id="EN_242" type="passenger_right" route="EN" depart="379" />
    <vehicle id="NE_243" type="passenger_left" route="NE" depart="383" />
    <vehicle id="EW_244" type="passenger_through" route="EW" depart="384" />
    <vehicle id="EN_245" type="passenger_right" route="EN" depart="386" />
    <vehicle id="SN_246" type="passenger_through" route="SN" depart="386" />
    <vehicle id="ES_247" type="passenger_left" route="ES" depart="387" />
    <vehicle id="WE_248" type="passenger_through" route="WE" depart="387" />
    <vehicle id="WE_249" type="passenger_through" route="WE" depart="388" />
    <vehicle id="EW_250" type="passenger_through" route="EW" depart="390" />
    <vehicle id="WE_251" type="passenger_through" route="WE" depart="390" />
    <vehicle id="ES_252" type="passenger_left" route="ES" depart="392" />
    <vehicle id="WS_253" type="passenger_right" route="WS" depart="392" />
    <vehicle id="NS_254" type="passenger_through" route="NS" depart="393" />
    <vehicle id="WE_255" type="passenger_through" route="WE" depart="393" />
    <vehicle id="EN_256" type="passenger_right" route="EN" depart="394" />
    <vehicle id="ES_257" type="passenger_left" route="ES" depart="394" />
    <vehicle id="WN_258" type="passenger_left" route="WN" depart="394" />
    <vehicle id="SN_259" type="passenger_through" route="SN" depart="395" />
    <vehicle id="NW_260" type="passenger_right" route="NW" depart="397" />
    <vehicle id="EN_261" type="passenger_right" route="EN" depart="403" />
    <vehicle id="ES_262" type="passenger_left" route="ES" depart="403" />
    <vehicle id="NE_263" type="passenger_left" route="NE" depart="404" />
    <vehicle id="WS_264" type="passenger_right" route="WS" depart="405" />
    <vehicle id="SN_265" type="passenger_through" route="SN" depart="406" />
    <vehicle id="NE_266" type="passenger_left" route="NE" depart="411" />
    <vehicle id="WS_267" type="passenger_right" route="WS" depart="412" />
    <vehicle id="SE_268" type="passenger_right" route="SE" depart="412" />
    <vehicle id="NE_269" type="passenger_left" route="NE" depart="417" />
    <vehicle id="WS_270" type="passenger_right" route="WS" depart="417" />
    <vehicle id="NS_271" type="passenger_through" route="NS" depart="418" />
    <vehicle id="SW_272" type="passenger_left" route="SW" depart="418" />
    <vehicle id="NS_273" type="passenger_through" route="NS" depart="419" />
    <vehicle id="WN_274" type="passenger_left" route="WN" depart="421" />
    <vehicle id="WE_275" type="passenger_through" route="WE" depart="422" />
    <vehicle id="WN_276" type="passenger_left" route="WN" depart="423" />
    <vehicle id="ES_277" type="passenger_left" route="ES" depart="425" />
    <vehicle id="WN_278" type="passenger_left" route="WN" depart="425" />
    <vehicle id="SW_279" type="passenger_left" route="SW" depart="426" />
    <vehicle id="NE_280" type="passenger_left" route="NE" depart="428" />
    <vehicle id="NS_281" type="passenger_through" route="NS" depart="431" />
    <vehicle id="WN_282" type="passenger_left" route="WN" depart="435" />
    <vehicle id="EN_283" type="passenger_right" route="EN" depart="437" />
    <vehicle id="EW_284" type="passenger_through" route="EW" depart="437" />
    <vehicle id="WN_285" type="passenger_left" route="WN" depart="439" />
    <vehicle id="EW_286" type="passenger_through" route="EW" depart="440" />
    <vehicle id="EN_287" type="passenger_right" route="EN" depart="443" />
    <vehicle id="WE_288" type="passenger_through" route="WE" depart="444" />
    <vehicle id="EN_289" type="passenger_right" route="EN" depart="445" />
    <vehicle id="NW_290" type="passenger_right" route="NW" depart="446" />
    <vehicle id="WE_291" type="passenger_through" route="WE" depart="449" />
    <vehicle id="EW_292" type="passenger_through" route="EW" depart="450" />
    <vehicle id="EN_293" type="passenger_right" route="EN" depart="452" />
    <vehicle id="WE_294" type="passenger_through" route="WE" depart="452" />
    <vehicle id="NS_295" type="passenger_through" route="NS" depart="458" />
    <vehicle id="SW_296" type="passenger_left" route="SW" depart="459" />
    <vehicle id="SE_297" type="passenger_right" route="SE" depart="461" />
    <vehicle id="SN_298" type="passenger_through" route="SN" depart="461" />
    <vehicle id="EN_299" type="passenger_right" route="EN" depart="462" />
    <vehicle id="SN_300" type="passenger_through" route="SN" depart="462" />
    <vehicle id="WE_301" type="passenger_through" route="WE" depart="463" />
    <vehicle id="NW_302" type="passenger_right" route="NW" depart="466" />
    <vehicle id="WN_303" type="passenger_left" route="WN" depart="466" />
    <vehicle id="SN_304" type="passenger_through" route="SN" depart="466" />
    <vehicle id="EN_305" type="passenger_right" route="EN" depart="467" />
    <vehicle id="EW_306" type="passenger_through" route="EW" depart="468" />
    <vehicle id="WN_307" type="passenger_left" route="WN" depart="468" />
    <vehicle id="EN_308" type="passenger_right" route="EN" depart="469" />
    <vehicle id="SN_309" type="passenger_through" route="SN" depart="470" />
    <vehicle id="NW_310" type="passenger_right" route="NW" depart="476" />
    <vehicle id="NE_311" type="passenger_left" route="NE" depart="476" />
    <vehicle id="WN_312" type="passenger_left" route="WN" depart="476" />
    <vehicle id="NS_313" type="passenger_through" route="NS" depart="477" />
    <vehicle id="NS_314" type="passenger_through" route="NS" depart="478" />
    <vehicle id="NE_315" type="passenger_left" route="NE" depart="479" />
    <vehicle id="EN_316" type="passenger_right" route="EN" depart="480" />
    <vehicle id="EW_317" type="passenger_through" route="EW" depart="481" />
    <vehicle id="SN_318" type="passenger_through" route="SN" depart="488" />
    <vehicle id="SW_319" type="passenger_left" route="SW" depart="489" />
    <vehicle id="SW_320" type="passenger_left" route="SW" depart="491" />
    <vehicle id="NE_321" type="passenger_left" route="NE" depart="492" />
    <vehicle id="EW_322" type="passenger_through" route="EW" depart="494" />
    <vehicle id="EW_323" type="passenger_through" route="EW" depart="495" />
    <vehicle id="WN_324" type="passenger_left" route="WN" depart="496" />
    <vehicle id="ES_325" type="passenger_left" route="ES" depart="497" />
    <vehicle id="NW_326" type="passenger_right" route="NW" depart="497" />
    <vehicle id="SE_327" type="passenger_right" route="SE" depart="501" />
    <vehicle id="NS_328" type="passenger_through" route="NS" depart="504" />
    <vehicle id="EN_329" type="passenger_right" route="EN" depart="505" />
    <vehicle id="WS_330" type="passenger_right" route="WS" depart="505" />
    <vehicle id="EW_331" type="passenger_through" route="EW" depart="506" />
    <vehicle id="SN_332" type="passenger_through" route="SN" depart="507" />
    <vehicle id="ES_333" type="passenger_left" route="ES" depart="510" />
    <vehicle id="EN_334" type="passenger_right" route="EN" depart="512" />
    <vehicle id="SN_335" type="passenger_through" route="SN" depart="514" />
    <vehicle id="WE_336" type="passenger_through" route="WE" depart="516" />
    <vehicle id="ES_337" type="passenger_left" route="ES" depart="517" />
    <vehicle id="ES_338" type="passenger_left" route="ES" depart="519" />
    <vehicle id="WE_339" type="passenger_through" route="WE" depart="519" />
    <vehicle id="SN_340" type="passenger_through" route="SN" depart="520" />
    <vehicle id="EN_341" type="passenger_right" route="EN" depart="524" />
    <vehicle id="NS_342" type="passenger_through" route="NS" depart="525" />
    <vehicle id="WN_343" type="passenger_left" route="WN" depart="528" />
    <vehicle id="WS_344" type="passenger_right" route="WS" depart="529" />
    <vehicle id="WE_345" type="passenger_through" route="WE" depart="533" />
    <vehicle id="NW_346" type="passenger_right" route="NW" depart="536" />
    <vehicle id="SE_347" type="passenger_right" route="SE" depart="537" />
    <vehicle id="SN_348" type="passenger_through" route="SN" depart="537" />
    <vehicle id="EW_349" type="passenger_through" route="EW" depart="544" />
    <vehicle id="SW_350" type="passenger_left" route="SW" depart="544" />
    <vehicle id="WN_351" type="passenger_left" route="WN" depart="545" />
    <vehicle id="SN_352" type="passenger_through" route="SN" depart="548" />
    <vehicle id="EW_353" type="passenger_through" route="EW" depart="549" />
    <vehicle id="WE_354" type="passenger_through" route="WE" depart="549" />
    <vehicle id="WN_355" type="passenger_left" route="WN" depart="551" />
    <vehicle id="SN_356" type="passenger_through" route="SN" depart="552" />
    <vehicle id="WN_357" type="passenger_left" route="WN" depart="553" />
    <vehicle id="SW_358" type="passenger_left" route="SW" depart="553" />
    <vehicle id="EN_359" type="passenger_right" route="EN" depart="554" />
    <vehicle id="SN_360" type="passenger_through" route="SN" depart="556" />
    <vehicle id="NE_361" type="passenger_left" route="NE" depart="558" />
    <vehicle id="WE_362" type="passenger_through" route="WE" depart="558" />
    <vehicle id="NW_363" type="passenger_right" route="NW" depart="561" />
    <vehicle id="WN_364" type="passenger_left" route="WN" depart="562" />
    <vehicle id="SN_365" type="passenger_through" route="SN" depart="562" />
    <vehicle id="SW_366" type="passenger_left" route="SW" depart="563" />
    <vehicle id="SN_367" type="passenger_through" route="SN" depart="564" />
    <vehicle id="SW_368" type="passenger_left" route="SW" depart="564" />
    <vehicle id="NW_369" type="passenger_right" route="NW" depart="567" />
    <vehicle id="EN_370" type="passenger_right" route="EN" depart="570" />
    <vehicle id="EW_371" type="passenger_through" route="EW" depart="570" />
    <vehicle id="WE_372" type="passenger_through" route="WE" depart="570" />
    <vehicle id="SN_373" type="passenger_through" route="SN" depart="572" />
    <vehicle id="EN_374" type="passenger_right" route="EN" depart="576" />
    <vehicle id="ES_375" type="passenger_left" route="ES" depart="576" />
    <vehicle id="ES_376" type="passenger_left" route="ES" depart="578" />
    <vehicle id="WS_377" type="passenger_right" route="WS" depart="579" />
    <vehicle id="WS_378" type="passenger_right" route="WS" depart="580" />
    <vehicle id="WS_379" type="passenger_right" route="WS" depart="581" />