<routes>
        <vType id="passenger_left" accel="0.8" decel="4.5" sigma="0.5" length="5" minGap="2.5" maxSpeed="16.67" guiShape="passenger"/>
        <vType id="passenger_through" accel="0.8" decel="4.5" sigma="0.5" length="5" minGap="2.5" maxSpeed="16.67" guiShape="passenger"/>
        <vType id="passenger_right" accel="0.8" decel="4.5" sigma="0.5" length="5" minGap="2.5" maxSpeed="16.67" guiShape="passenger"/>
        <vType id="bus_left" accel="0.8" decel="4.5" sigma="0.5" length="7" minGap="3" maxSpeed="25" guiShape="bus"/>
        <vType id="bus_through" accel="0.8" decel="4.5" sigma="0.5" length="7" minGap="3" maxSpeed="25" guiShape="bus"/>
        <vType id="bus_right" accel="0.8" decel="4.5" sigma="0.5" length="7" minGap="3" maxSpeed="25" guiShape="bus"/>
        <route id="EN" edges="east_u east_c north_out" />
        <route id="EW" edges="east_u east_c west_out" />
        <route id="ES" edges="east_u east_c south_out" />
        <route id="NW" edges="north_u north_c west_out" />
        <route id="NS" edges="north_u north_c south_out" />
        <route id="NE" edges="north_u north_c east_out" />
        <route id="WS" edges="west_u west_c south_out" />
        <route id="WE" edges="west_u west_c east_out" />
        <route id="WN" edges="west_u west_c north_out" />
        <route id="SE" edges="south_u south_c east_out" />
        <route id="SN" edges="south_u south_c north_out" />
        <route id="SW" edges="south_u south_c west_out" />
        
    <vehicle id="0" type="passenger_through" route="EW" depart="0" />
    <vehicle id="1" type="passenger_right" route="SE" depart="0" />
    <vehicle id="2" type="passenger_right" route="EN" depart="1" />
    <vehicle id="3" type="passenger_through" route="WE" depart="1" />
    <vehicle id="4" type="passenger_left" route="NE" depart="3" />
    <vehicle id="5" type="passenger_through" route="WE" depart="5" />
    <vehicle id="6" type="passenger_left" route="NE" depart="7" />
    <vehicle id="7" type="passenger_through" route="NS" depart="8" />
    <vehicle id="8" type="passenger_through" route="NS" depart="10" />
    <vehicle id="9" type="passenger_right" route="WS" depart="10" />
    <vehicle id="10" type="passenger_left" route="SW" depart="10" />
    <vehicle id="11" type="passenger_left" route="NE" depart="16" />
    <vehicle id="12" type="passenger_right" route="EN" depart="21" />
    <vehicle id="13" type="passenger_left" route="NE" depart="22" />
    <vehicle id="14" type="passenger_left" route="ES" depart="24" />
    <vehicle id="15" type="passenger_right" route="SE" depart="24" />
    <vehicle id="16" type="passenger_right" route="EN" depart="27" />
    <vehicle id="17" type="passenger_right" route="WS" depart="28" />
    <vehicle id="18" type="passenger_left" route="WN" depart="30" />
    <vehicle id="19" type="passenger_through" route="SN" depart="32" />
    <vehicle id="20" type="passenger_through" route="WE" depart="34" />
    <vehicle id="21" type="passenger_through" route="WE" depart="35" />
    <vehicle id="22" type="passenger_through" route="EW" depart="39" />
    <vehicle id="23" type="passenger_through" route="EW" depart="40" />
    <vehicle id="24" type="passenger_through" route="EW" depart="41" />
    <vehicle id="25" type="passenger_right" route="SE" depart="41" />
    <vehicle id="26" type="passenger_right" route="EN" depart="42" />
    <vehicle id="27" type="passenger_through" route="EW" depart="43" />
    <vehicle id="28" type="passenger_left" route="ES" depart="43" />
    <vehicle id="29" type="passenger_right" route="EN" depart="44" />
    <vehicle id="30" type="passenger_right" route="NW" depart="45" />
    <vehicle id="31" type="passenger_through" route="EW" depart="49" />
    <vehicle id="32" type="passenger_through" route="SN" depart="49" />
    <vehicle id="33" type="passenger_right" route="EN" depart="50" />
    <vehicle id="34" type="passenger_through" route="EW" depart="53" />
    <vehicle id="35" type="passenger_through" route="SN" depart="54" />
    <vehicle id="36" type="passenger_right" route="EN" depart="57" />
    <vehicle id="37" type="passenger_left" route="WN" depart="59" />
    <vehicle id="38" type="passenger_right" route="EN" depart="60" />
    <vehicle id="39" type="passenger_left" route="WN" depart="60" />
    <vehicle id="40" type="passenger_through" route="EW" depart="68" />
    <vehicle id="41" type="passenger_through" route="SN" depart="68" />
    <vehicle id="42" type="passenger_left" route="SW" depart="70" />
    <vehicle id="43" type="passenger_right" route="EN" depart="71" />
    <vehicle id="44" type="passenger_right" route="EN" depart="72" />
    <vehicle id="45" type="passenger_right" route="WS" depart="73" />
    <vehicle id="46" type="passenger_left" route="WN" depart="75" />
    <vehicle id="47" type="passenger_left" route="WN" depart="79" />
    <vehicle id="48" type="passenger_right" route="WS" depart="80" />
    <vehicle id="49" type="passenger_left" route="SW" depart="80" />
    <vehicle id="50" type="passenger_left" route="SW" depart="82" />
    <vehicle id="51" type="passenger_left" route="NE" depart="84" />
    <vehicle id="52" type="passenger_right" route="WS" depart="85" />
    <vehicle id="53" type="passenger_through" route="EW" depart="86" />
    <vehicle id="54" type="passenger_left" route="ES" depart="86" />
    <vehicle id="55" type="passenger_through" route="WE" depart="86" />
    <vehicle id="56" type="passenger_left" route="NE" depart="87" />
    <vehicle id="57" type="passenger_left" route="SW" depart="87" />
    <vehicle id="58" type="passenger_right" route="SE" depart="93" />
    <vehicle id="59" type="passenger_left" route="NE" depart="94" />
    <vehicle id="60" type="passenger_left" route="SW" depart="94" />
    <vehicle id="61" type="passenger_through" route="EW" depart="97" />
    <vehicle id="62" type="passenger_through" route="NS" depart="97" />
    <vehicle id="63" type="passenger_through" route="SN" depart="97" />
    <vehicle id="64" type="passenger_left" route="WN" depart="98" />
    <vehicle id="65" type="passenger_right" route="SE" depart="98" />
    <vehicle id="66" type="passenger_left" route="NE" depart="99" />
    <vehicle id="67" type="passenger_right" route="EN" depart="103" />
    <vehicle id="68" type="passenger_through" route="EW" depart="105" />
    <vehicle id="69" type="passenger_left" route="ES" depart="110" />
    <vehicle id="70" type="passenger_left" route="NE" depart="114" />
    <vehicle id="71" type="passenger_right" route="WS" depart="114" />
    <vehicle id="72" type="passenger_left" route="SW" depart="114" />
    <vehicle id="73" type="passenger_left" route="SW" depart="115" />
    <vehicle id="74" type="passenger_right" route="EN" depart="116" />
    <vehicle id="75" type="passenger_through" route="NS" depart="117" />
    <vehicle id="76" type="passenger_through" route="EW" depart="118" />
    <vehicle id="77" type="passenger_through" route="EW" depart="119" />
    <vehicle id="78" type="passenger_right" route="SE" depart="119" />
    <vehicle id="79" type="passenger_through" route="SN" depart="120" />
    <vehicle id="80" type="passenger_right" route="EN" depart="121" />
    <vehicle id="81" type="passenger_through" route="EW" depart="123" />
    <vehicle id="82" type="passenger_through" route="EW" depart="124" />
    <vehicle id="83" type="passenger_left" route="NE" depart="125" />
    <vehicle id="84" type="passenger_left" route="WN" depart="129" />
    <vehicle id="85" type="passenger_through" route="SN" depart="131" />
    <vehicle id="86" type="passenger_right" route="EN" depart="134" />
    <vehicle id="87" type="passenger_through" route="EW" depart="134" />
    <vehicle id="88" type="passenger_through" route="EW" depart="138" />
    <vehicle id="89" type="passenger_through" route="WE" depart="138" />
    <vehicle id="90" type="passenger_left" route="NE" depart="143" />
    <vehicle id="91" type="passenger_through" route="WE" depart="144" />
    <vehicle id="92" type="passenger_through" route="SN" depart="144" />
    <vehicle id="93" type="passenger_through" route="WE" depart="150" />
    <vehicle id="94" type="passenger_right" route="EN" depart="153" />
    <vehicle id="95" type="passenger_left" route="ES" depart="156" />
    <vehicle id="96" type="passenger_right" route="EN" depart="159" />
    <vehicle id="97" type="passenger_right" route="EN" depart="161" />
    <vehicle id="98" type="passenger_through" route="WE" depart="161" />
    <vehicle id="99" type="passenger_left" route="NE" depart="163" />
    <vehicle id="100" type="passenger_right" route="WS" depart="163" />
    <vehicle id="101" type="passenger_through" route="SN" depart="164" />
    <vehicle id="102" type="passenger_through" route="EW" depart="165" />
    <vehicle id="103" type="passenger_through" route="SN" depart="165" />
    <vehicle id="104" type="passenger_right" route="EN" depart="167" />
    <vehicle id="105" type="passenger_through" route="SN" depart="170" />
    <vehicle id="106" type="passenger_right" route="NW" depart="175" />
    <vehicle id="107" type="passenger_right" route="EN" depart="176" />
    <vehicle id="108" type="passenger_left" route="WN" depart="176" />
    <vehicle id="109" type="passenger_through" route="SN" depart="176" />
    <vehicle id="110" type="passenger_left" route="ES" depart="177" />
    <vehicle id="111" type="passenger_left" route="NE" depart="179" />
    <vehicle id="112" type="passenger_right" route="EN" depart="180" />
    <vehicle id="113" type="passenger_left" route="ES" depart="180" />
    <vehicle id="114" type="passenger_through" route="WE" depart="180" />
    <vehicle id="115" type="passenger_right" route="EN" depart="181" />
    <vehicle id="116" type="passenger_left" route="NE" depart="183" />
    <vehicle id="117" type="passenger_through" route="EW" depart="185" />
    <vehicle id="118" type="passenger_through" route="SN" depart="185" />
    <vehicle id="119" type="passenger_right" route="EN" depart="186" />
    <vehicle id="120" type="passenger_through" route="EW" depart="192" />
    <vehicle id="121" type="passenger_through" route="WE" depart="193" />
    <vehicle id="122" type="passenger_left" route="ES" depart="194" />
    <vehicle id="123" type="passenger_left" route="ES" depart="195" />
    <vehicle id="124" type="passenger_left" route="SW" depart="197" />
    <vehicle id="125" type="passenger_right" route="EN" depart="202" />
    <vehicle id="126" type="passenger_left" route="ES" depart="202" />
    <vehicle id="127" type="passenger_right" route="EN" depart="203" />
    <vehicle id="128" type="passenger_through" route="EW" depart="203" />
    <vehicle id="129" type="passenger_left" route="NE" depart="204" />
    <vehicle id="130" type="passenger_left" route="WN" depart="209" />
    <vehicle id="131" type="passenger_left" route="SW" depart="211" />
    <vehicle id="132" type="passenger_through" route="WE" depart="213" />
    <vehicle id="133" type="passenger_right" route="EN" depart="214" />
    <vehicle id="134" type="passenger_through" route="WE" depart="215" />
    <vehicle id="135" type="passenger_through" route="EW" depart="217" />
    <vehicle id="136" type="passenger_right" route="SE" depart="219" />
    <vehicle id="137" type="passenger_right" route="EN" depart="220" />
    <vehicle id="138" type="passenger_through" route="EW" depart="220" />
    <vehicle id="139" type="passenger_through" route="EW" depart="222" />
    <vehicle id="140" type="passenger_left" route="SW" depart="223" />
    <vehicle id="141" type="passenger_left" route="NE" depart="225" />
    <vehicle id="142" type="passenger_left" route="SW" depart="227" />
    <vehicle id="143" type="passenger_right" route="EN" depart="229" />
    <vehicle id="144" type="passenger_through" route="WE" depart="229" />
    <vehicle id="145" type="passenger_through" route="EW" depart="231" />
    <vehicle id="146" type="passenger_left" route="SW" depart="233" />
    <vehicle id="147" type="passenger_right" route="SE" depart="234" />
    <vehicle id="148" type="passenger_left" route="NE" depart="235" />
    <vehicle id="149" type="passenger_through" route="NS" depart="236" />
    <vehicle id="150" type="passenger_right" route="EN" depart="237" />
    <vehicle id="151" type="passenger_right" route="WS" depart="237" />
    <vehicle id="152" type="passenger_through" route="EW" depart="238" />
    <vehicle id="153" type="passenger_left" route="NE" depart="240" />
    <vehicle id="154" type="passenger_left" route="NE" depart="242" />
    <vehicle id="155" type="passenger_left" route="WN" depart="243" />
    <vehicle id="156" type="passenger_through" route="NS" depart="244" />
    <vehicle id="157" type="passenger_right" route="NW" depart="247" />
    <vehicle id="158" type="passenger_left" route="ES" depart="249" />
    <vehicle id="159" type="passenger_through" route="WE" depart="251" />
    <vehicle id="160" type="passenger_through" route="WE" depart="253" />
    <vehicle id="161" type="passenger_right" route="SE" depart="260" />
    <vehicle id="162" type="passenger_left" route="ES" depart="261" />
    <vehicle id="163" type="passenger_right" route="SE" depart="261" />
    <vehicle id="164" type="passenger_left" route="ES" depart="264" />
    <vehicle id="165" type="passenger_right" route="NW" depart="265" />
    <vehicle id="166" type="passenger_right" route="EN" depart="267" />
    <vehicle id="167" type="passenger_right" route="NW" depart="267" />
    <vehicle id="168" type="passenger_through" route="WE" depart="267" />
    <vehicle id="169" type="passenger_through" route="NS" depart="271" />
    <vehicle id="170" type="passenger_through" route="SN" depart="274" />
    <vehicle id="171" type="passenger_through" route="EW" depart="276" />
    <vehicle id="172" type="passenger_left" route="ES" depart="277" />
    <vehicle id="173" type="passenger_left" route="NE" depart="277" />
    <vehicle id="174" type="passenger_left" route="NE" depart="280" />
    <vehicle id="175" type="passenger_through" route="EW" depart="281" />
    <vehicle id="176" type="passenger_left" route="NE" depart="283" />
    <vehicle id="177" type="passenger_through" route="SN" depart="283" />
    <vehicle id="178" type="passenger_right" route="NW" depart="285" />
    <vehicle id="179" type="passenger_through" route="SN" depart="285" />
    <vehicle id="180" type="passenger_left" route="NE" depart="288" />
    <vehicle id="181" type="passenger_through" route="EW" depart="289" />
    <vehicle id="182" type="passenger_left" route="SW" depart="290" />
    <vehicle id="183" type="passenger_through" route="EW" depart="293" />
    <vehicle id="184" type="passenger_left" route="SW" depart="293" />
    <vehicle id="185" type="passenger_left" route="NE" depart="297" />
    <vehicle id="186" type="passenger_right" route="EN" depart="302" />
    <vehicle id="187" type="passenger_right" route="EN" depart="303" />
    <vehicle id="188" type="passenger_through" route="WE" depart="304" />
    <vehicle id="189" type="passenger_through" route="EW" depart="308" />
    <vehicle id="190" type="passenger_through" route="NS" depart="309" />
    <vehicle id="191" type="passenger_left" route="SW" depart="310" />
    <vehicle id="192" type="passenger_through" route="WE" depart="311" />
    <vehicle id="193" type="passenger_right" route="EN" depart="313" />
    <vehicle id="194" type="passenger_through" route="EW" depart="313" />
    <vehicle id="195" type="passenger_through" route="SN" depart="313" />
    <vehicle id="196" type="passenger_right" route="SE" depart="316" />
    <vehicle id="197" type="passenger_through" route="NS" depart="320" />
    <vehicle id="198" type="passenger_through" route="EW" depart="322" />
    <vehicle id="199" type="passenger_right" route="NW" depart="322" />
    <vehicle id="200" type="passenger_left" route="NE" depart="322" />
    <vehicle id="201" type="passenger_right" route="WS" depart="325" />
    <vehicle id="202" type="passenger_right" route="EN" depart="326" />
    <vehicle id="203" type="passenger_left" route="NE" depart="329" />
    <vehicle id="204" type="passenger_right" route="WS" depart="329" />
    <vehicle id="205" type="passenger_through" route="SN" depart="329" />
    <vehicle id="206" type="passenger_right" route="EN" depart="330" />
    <vehicle id="207" type="passenger_right" route="WS" depart="330" />
    <vehicle id="208" type="passenger_through" route="EW" depart="333" />
    <vehicle id="209" type="passenger_left" route="ES" depart="334" />
    <vehicle id="210" type="passenger_right" route="EN" depart="335" />
    <vehicle id="211" type="passenger_through" route="EW" depart="336" />
    <vehicle id="212" type="passenger_right" route="NW" depart="339" />
    <vehicle id="213" type="passenger_left" route="SW" depart="339" />
    <vehicle id="214" type="passenger_left" route="ES" depart="341" />
    <vehicle id="215" type="passenger_through" route="WE" depart="341" />
    <vehicle id="216" type="passenger_right" route="SE" depart="341" />
    <vehicle id="217" type="passenger_left" route="ES" depart="345" />
    <vehicle id="218" type="passenger_right" route="EN" depart="346" />
    <vehicle id="219" type="passenger_through" route="WE" depart="348" />
    <vehicle id="220" type="passenger_left" route="WN" depart="350" />
    <vehicle id="221" type="passenger_right" route="EN" depart="355" />
    <vehicle id="222" type="passenger_right" route="EN" depart="357" />
    <vehicle id="223" type="passenger_right" route="NW" depart="358" />
    <vehicle id="224" type="passenger_left" route="SW" depart="358" />
    <vehicle id="225" type="passenger_left" route="ES" depart="359" />
    <vehicle id="226" type="passenger_through" route="NS" depart="360" />
    <vehicle id="227" type="passenger_right" route="WS" depart="362" />
    <vehicle id="228" type="passenger_left" route="SW" depart="362" />
    <vehicle id="229" type="passenger_right" route="NW" depart="363" />
    <vehicle id="230" type="passenger_through" route="WE" depart="363" />
    <vehicle id="231" type="passenger_left" route="SW" depart="365" />
    <vehicle id="232" type="passenger_right" route="EN" depart="366" />
    <vehicle id="233" type="passenger_right" route="SE" depart="368" />
    <vehicle id="234" type="passenger_through" route="WE" depart="369" />
    <vehicle id="235" type="passenger_left" route="SW" depart="370" />
    <vehicle id="236" type="passenger_right" route="EN" depart="371" />
    <vehicle id="237" type="passenger_right" route="EN" depart="372" />
    <vehicle id="238" type="passenger_right" route="SE" depart="374" />
    <vehicle id="239" type="passenger_through" route="EW" depart="375" />
    <vehicle id="240" type="passenger_through" route="EW" depart="378" />
    <vehicle id="241" type="passenger_left" route="SW" depart="378" />
    <vehicle id="242" type="passenger_right" route="EN" depart="379" />
    <vehicle id="243" type="passenger_left" route="NE" depart="383" />
    <vehicle id="244" type="passenger_through" route="EW" depart="384" />
    <vehicle id="245" type="passenger_right" route="EN" depart="386" />
    <vehicle id="246" type="passenger_through" route="SN" depart="386" />
    <vehicle id="247" type="passenger_left" route="ES" depart="387" />
    <vehicle id="248" type="passenger_through" route="WE" depart="387" />
    <vehicle id="249" type="passenger_through" route="WE" depart="388" />
    <vehicle id="250" type="passenger_through" route="EW" depart="390" />
    <vehicle id="251" type="passenger_through" route="WE" depart="390" />
    <vehicle id="252" type="passenger_left" route="ES" depart="392" />
    <vehicle id="253" type="passenger_right" route="WS" depart="392" />
    <vehicle id="254" type="passenger_through" route="NS" depart="393" />
    <vehicle id="255" type="passenger_through" route="WE" depart="393" />
    <vehicle id="256" type="passenger_right" route="EN" depart="394" />
    <vehicle id="257" type="passenger_left" route="ES" depart="394" />
    <vehicle id="258" type="passenger_left" route="WN" depart="394" />
    <vehicle id="259" type="passenger_through" route="SN" depart="395" />
    <vehicle id="260" type="passenger_right" route="NW" depart="397" />
    <vehicle id="261" type="passenger_right" route="EN" depart="403" />
    <vehicle id="262" type="passenger_left" route="ES" depart="403" />
    <vehicle id="263" type="passenger_left" route="NE" depart="404" />
    <vehicle id="264" type="passenger_right" route="WS" depart="405" />
    <vehicle id="265" type="passenger_through" route="SN" depart="406" />
    <vehicle id="266" type="passenger_left" route="NE" depart="411" />
    <vehicle id="267" type="passenger_right" route="WS" depart="412" />
    <vehicle id="268" type="passenger_right" route="SE" depart="412" />
    <vehicle id="269" type="passenger_left" route="NE" depart="417" />
    <vehicle id="270" type="passenger_right" route="WS" depart="417" />
    <vehicle id="271" type="passenger_through" route="NS" depart="418" />
    <vehicle id="272" type="passenger_left" route="SW" depart="418" />
    <vehicle id="273" type="passenger_through" route="NS" depart="419" />
    <vehicle id="274" type="passenger_left" route="WN" depart="421" />
    <vehicle id="275" type="passenger_through" route="WE" depart="422" />
    <vehicle id="276" type="passenger_left" route="WN" depart="423" />
    <vehicle id="277" type="passenger_left" route="ES" depart="425" />
    <vehicle id="278" type="passenger_left" route="WN" depart="425" />
    <vehicle id="279" type="passenger_left" route="SW" depart="426" />
    <vehicle id="280" type="passenger_left" route="NE" depart="428" />
    <vehicle id="281" type="passenger_through" route="NS" depart="431" />
    <vehicle id="282" type="passenger_left" route="WN" depart="435" />
    <vehicle id="283" type="passenger_right" route="EN" depart="437" />
    <vehicle id="284" type="passenger_through" route="EW" depart="437" />
    <vehicle id="285" type="passenger_left" route="WN" depart="439" />
    <vehicle id="286" type="passenger_through" route="EW" depart="440" />
    <vehicle id="287" type="passenger_right" route="EN" depart="443" />
    <vehicle id="288" type="passenger_through" route="WE" depart="444" />
    <vehicle id="289" type="passenger_right" route="EN" depart="445" />
    <vehicle id="290" type="passenger_right" route="NW" depart="446" />
    <vehicle id="291" type="passenger_through" route="WE" depart="449" />
    <vehicle id="292" type="passenger_through" route="EW" depart="450" />
    <vehicle id="293" type="passenger_right" route="EN" depart="452" />
    <vehicle id="294" type="passenger_through" route="WE" depart="452" />
    <vehicle id="295" type="passenger_through" route="NS" depart="458" />
    <vehicle id="296" type="passenger_left" route="SW" depart="459" />
    <vehicle id="297" type="passenger_right" route="SE" depart="461" />
    <vehicle id="298" type="passenger_through" route="SN" depart="461" />
    <vehicle id="299" type="passenger_right" route="EN" depart="462" />
    <vehicle id="300" type="passenger_through" route="SN" depart="462" />
    <vehicle id="301" type="passenger_through" route="WE" depart="463" />
    <vehicle id="302" type="passenger_right" route="NW" depart="466" />
    <vehicle id="303" type="passenger_left" route="WN" depart="466" />
    <vehicle id="304" type="passenger_through" route="SN" depart="466" />
    <vehicle id="305" type="passenger_right" route="EN" depart="467" />
    <vehicle id="306" type="passenger_through" route="EW" depart="468" />
    <vehicle id="307" type="passenger_left" route="WN" depart="468" />
    <vehicle id="308" type="passenger_right" route="EN" depart="469" />
    <vehicle id="309" type="passenger_through" route="SN" depart="470" />
    <vehicle id="310" type="passenger_right" route="NW" depart="476" />
    <vehicle id="311" type="passenger_left" route="NE" depart="476" />
    <vehicle id="312" type="passenger_left" route="WN" depart="476" />
    <vehicle id="313" type="passenger_through" route="NS" depart="477" />
    <vehicle id="314" type="passenger_through" route="NS" depart="478" />
    <vehicle id="315" type="passenger_left" route="NE" depart="479" />
    <vehicle id="316" type="passenger_right" route="EN" depart="480" />
    <vehicle id="317" type="passenger_through" route="EW" depart="481" />
    <vehicle id="318" type="passenger_through" route="SN" depart="488" />
    <vehicle id="319" type="passenger_left" route="SW" depart="489" />
    <vehicle id="320" type="passenger_left" route="SW" depart="491" />
    <vehicle id="321" type="passenger_left" route="NE" depart="492" />
    <vehicle id="322" type="passenger_through" route="EW" depart="494" />
    <vehicle id="323" type="passenger_through" route="EW" depart="495" />
    <vehicle id="324" type="passenger_left" route="WN" depart="496" />
    <vehicle id="325" type="passenger_left" route="ES" depart="497" />
    <vehicle id="326" type="passenger_right" route="NW" depart="497" />
    <vehicle id="327" type="passenger_right" route="SE" depart="501" />
    <vehicle id="328" type="passenger_through" route="NS" depart="504" />
    <vehicle id="329" type="passenger_right" route="EN" depart="505" />
    <vehicle id="330" type="passenger_right" route="WS" depart="505" />
    <vehicle id="331" type="passenger_through" route="EW" depart="506" />
    <vehicle id="332" type="passenger_through" route="SN" depart="507" />
    <vehicle id="333" type="passenger_left" route="ES" depart="510" />
    <vehicle id="334" type="passenger_right" route="EN" depart="512" />
    <vehicle id="335" type="passenger_through" route="SN" depart="514" />
    <vehicle id="336" type="passenger_through" route="WE" depart="516" />
    <vehicle id="337" type="passenger_left" route="ES" depart="517" />
    <vehicle id="338" type="passenger_left" route="ES" depart="519" />
    <vehicle id="339" type="passenger_through" route="WE" depart="519" />
    <vehicle id="340" type="passenger_through" route="SN" depart="520" />
    <vehicle id="341" type="passenger_right" route="EN" depart="524" />
    <vehicle id="342" type="passenger_through" route="NS" depart="525" />
    <vehicle id="343" type="passenger_left" route="WN" depart="528" />
    <vehicle id="344" type="passenger_right" route="WS" depart="529" />
    <vehicle id="345" type="passenger_through" route="WE" depart="533" />
    <vehicle id="346" type="passenger_right" route="NW" depart="536" />
    <vehicle id="347" type="passenger_right" route="SE" depart="537" />
    <vehicle id="348" type="passenger_through" route="SN" depart="537" />
    <vehicle id="349" type="passenger_through" route="EW" depart="544" />
    <vehicle id="350" type="passenger_left" route="SW" depart="544" />
    <vehicle id="351" type="passenger_left" route="WN" depart="545" />
    <vehicle id="352" type="passenger_through" route="SN" depart="548" />
    <vehicle id="353" type="passenger_through" route="EW" depart="549" />
    <vehicle id="354" type="passenger_through" route="WE" depart="549" />
    <vehicle id="355" type="passenger_left" route="WN" depart="551" />
    <vehicle id="356" type="passenger_through" route="SN" depart="552" />
    <vehicle id="357" type="passenger_left" route="WN" depart="553" />
    <vehicle id="358" type="passenger_left" route="SW" depart="553" />
    <vehicle id="359" type="passenger_right" route="EN" depart="554" />
    <vehicle id="360" type="passenger_through" route="SN" depart="556" />
    <vehicle id="361" type="passenger_left" route="NE" depart="558" />
    <vehicle id="362" type="passenger_through" route="WE" depart="558" />
    <vehicle id="363" type="passenger_right" route="NW" depart="561" />
    <vehicle id="364" type="passenger_left" route="WN" depart="562" />
    <vehicle id="365" type="passenger_through" route="SN" depart="562" />
    <vehicle id="366" type="passenger_left" route="SW" depart="563" />
    <vehicle id="367" type="passenger_through" route="SN" depart="564" />
    <vehicle id="368" type="passenger_left" route="SW" depart="564" />
    <vehicle id="369" type="passenger_right" route="NW" depart="567" />
    <vehicle id="370" type="passenger_right" route="EN" depart="570" />
    <vehicle id="371" type="passenger_through" route="EW" depart="570" />
    <vehicle id="372" type="passenger_through" route="WE" depart="570" />
    <vehicle id="373" type="passenger_through" route="SN" depart="572" />
    <vehicle id="374" type="passenger_right" route="EN" depart="576" />
    <vehicle id="375" type="passenger_left" route="ES" depart="576" />
    <vehicle id="376" type="passenger_left" route="ES" depart="578" />
    <vehicle id="377" type="passenger_right" route="WS" depart="579" />
    <vehicle id="378" type="passenger_right" route="WS" depart="580" />
    <vehicle id="379" type="passenger_right" route="WS" depart="581" />
    <vehicle id="380" type="passenger_right" route="EN" depart="584" />
    <vehicle id="381" type="passenger_through" route="SN" depart="586" />
    <vehicle id="382" type="passenger_through" route="WE" depart="587" />
    <vehicle id="383" type="passenger_right" route="EN" depart="592" />
    <vehicle id="384" type="passenger_right" route="SE" depart="592" />
    <vehicle id="385" type="passenger_left" route="SW" depart="592" />
    <vehicle id="386" type="passenger_through" route="NS" depart="594" />
    <vehicle id="387" type="passenger_left" route="NE" depart="594" />
    <vehicle id="388" type="passenger_through" route="SN" depart="597" />
    <vehicle id="389" type="passenger_right" route="NW" depart="598" />
    <vehicle id="390" type="passenger_through" route="EW" depart="599" />
    <vehicle id="391" type="passenger_right" route="EN" depart="601" />
    <vehicle id="392" type="passenger_right" route="NW" depart="601" />
    <vehicle id="393" type="passenger_right" route="NW" depart="602" />
    <vehicle id="394" type="passenger_left" route="ES" depart="603" />
    <vehicle id="395" type="passenger_through" route="WE" depart="603" />