<routes>
        <vType vClass="private" sigma="0.5" lcStrategic="1.0" jmIgnoreKeepClearTime="0"        id="CAV_left" decel="4.5" color="0,255,0" carFollowModel="IDM" accel="3.0" xmlns:maxSpeed="40.0" xmlns:length="5"/>
        
        <vType vClass="custom1" sigma="0.5" lcStrategic="1.0" jmIgnoreKeepClearTime="0"        id="CAV_through" decel="4.5" color="24,116,205" carFollowModel="IDM" accel="3.0" xmlns:maxSpeed="40.0" xmlns:length="5"/>
        
        <vType vClass="custom2" sigma="0.5" lcStrategic="1.0" jmIgnoreKeepClearTime="0"        id="CAV_right" decel="4.5" color="218,112,214" carFollowModel="IDM" accel="3.0" xmlns:maxSpeed="40.0" xmlns:length="5"/>
        
        <route id="EN" edges="east_u east_c north_out" />
        <route id="EW" edges="east_u east_c west_out" />
        <route id="ES" edges="east_u east_c south_out" />
        <route id="NW" edges="north_u north_c west_out" />
        <route id="NS" edges="north_u north_c south_out" />
        <route id="NE" edges="north_u north_c east_out" />
        <route id="WS" edges="west_u west_c south_out" />
        <route id="WE" edges="west_u west_c east_out" />
        <route id="WN" edges="west_u west_c north_out" />
        <route id="SE" edges="south_u south_c east_out" />
        <route id="SN" edges="south_u south_c north_out" />
        <route id="SW" edges="south_u south_c west_out" />
        
    <vehicle id="0" type="CAV_through" route="EW" depart="0" />
    <vehicle id="1" type="CAV_right" route="SE" depart="0" />
    <vehicle id="2" type="CAV_right" route="EN" depart="1" />
    <vehicle id="3" type="CAV_through" route="WE" depart="1" />
    <vehicle id="4" type="CAV_left" route="ES" depart="2" />
    <vehicle id="5" type="CAV_right" route="NW" depart="2" />
    <vehicle id="6" type="CAV_left" route="NE" depart="3" />
    <vehicle id="7" type="CAV_through" route="WE" depart="5" />
    <vehicle id="8" type="CAV_through" route="NS" depart="7" />
    <vehicle id="9" type="CAV_left" route="NE" depart="7" />
    <vehicle id="10" type="CAV_through" route="NS" depart="8" />
    <vehicle id="11" type="CAV_through" route="NS" depart="10" />
    <vehicle id="12" type="CAV_right" route="WS" depart="10" />
    <vehicle id="13" type="CAV_left" route="SW" depart="10" />
    <vehicle id="14" type="CAV_left" route="ES" depart="11" />
    <vehicle id="15" type="CAV_through" route="NS" depart="11" />
    <vehicle id="16" type="CAV_through" route="NS" depart="13" />
    <vehicle id="17" type="CAV_right" route="NW" depart="15" />
    <vehicle id="18" type="CAV_left" route="NE" depart="16" />
    <vehicle id="19" type="CAV_right" route="NW" depart="17" />
    <vehicle id="20" type="CAV_left" route="WN" depart="18" />
    <vehicle id="21" type="CAV_left" route="ES" depart="19" />
    <vehicle id="22" type="CAV_right" route="EN" depart="21" />
    <vehicle id="23" type="CAV_through" route="NS" depart="21" />
    <vehicle id="24" type="CAV_left" route="NE" depart="22" />
    <vehicle id="25" type="CAV_left" route="ES" depart="24" />
    <vehicle id="26" type="CAV_right" route="SE" depart="24" />
    <vehicle id="27" type="CAV_left" route="NE" depart="25" />
    <vehicle id="28" type="CAV_right" route="EN" depart="27" />
    <vehicle id="29" type="CAV_right" route="WS" depart="28" />
    <vehicle id="30" type="CAV_left" route="NE" depart="29" />
    <vehicle id="31" type="CAV_left" route="WN" depart="30" />
    <vehicle id="32" type="CAV_right" route="NW" depart="31" />
    <vehicle id="33" type="CAV_through" route="SN" depart="32" />
    <vehicle id="34" type="CAV_through" route="WE" depart="34" />
    <vehicle id="35" type="CAV_through" route="WE" depart="35" />
    <vehicle id="36" type="CAV_right" route="NW" depart="36" />
    <vehicle id="37" type="CAV_through" route="NS" depart="38" />
    <vehicle id="38" type="CAV_through" route="EW" depart="39" />
    <vehicle id="39" type="CAV_through" route="EW" depart="40" />
    <vehicle id="40" type="CAV_through" route="EW" depart="41" />
    <vehicle id="41" type="CAV_right" route="SE" depart="41" />
    <vehicle id="42" type="CAV_right" route="EN" depart="42" />
    <vehicle id="43" type="CAV_through" route="NS" depart="42" />
    <vehicle id="44" type="CAV_through" route="EW" depart="43" />
    <vehicle id="45" type="CAV_left" route="ES" depart="43" />
    <vehicle id="46" type="CAV_right" route="EN" depart="44" />
    <vehicle id="47" type="CAV_left" route="ES" depart="45" />
    <vehicle id="48" type="CAV_right" route="NW" depart="45" />
    <vehicle id="49" type="CAV_left" route="ES" depart="47" />
    <vehicle id="50" type="CAV_through" route="EW" depart="49" />
    <vehicle id="51" type="CAV_through" route="SN" depart="49" />
    <vehicle id="52" type="CAV_right" route="EN" depart="50" />
    <vehicle id="53" type="CAV_through" route="EW" depart="53" />
    <vehicle id="54" type="CAV_right" route="NW" depart="54" />
    <vehicle id="55" type="CAV_through" route="SN" depart="54" />
    <vehicle id="56" type="CAV_right" route="NW" depart="55" />
    <vehicle id="57" type="CAV_right" route="EN" depart="57" />
    <vehicle id="58" type="CAV_left" route="WN" depart="59" />
    <vehicle id="59" type="CAV_right" route="EN" depart="60" />
    <vehicle id="60" type="CAV_left" route="WN" depart="60" />
    <vehicle id="61" type="CAV_left" route="NE" depart="61" />
    <vehicle id="62" type="CAV_through" route="EW" depart="68" />
    <vehicle id="63" type="CAV_through" route="SN" depart="68" />
    <vehicle id="64" type="CAV_left" route="SW" depart="70" />
    <vehicle id="65" type="CAV_right" route="EN" depart="71" />
    <vehicle id="66" type="CAV_right" route="EN" depart="72" />
    <vehicle id="67" type="CAV_right" route="WS" depart="73" />
    <vehicle id="68" type="CAV_left" route="WN" depart="75" />
    <vehicle id="69" type="CAV_left" route="NE" depart="77" />
    <vehicle id="70" type="CAV_left" route="WN" depart="79" />
    <vehicle id="71" type="CAV_right" route="WS" depart="80" />
    <vehicle id="72" type="CAV_left" route="SW" depart="80" />
    <vehicle id="73" type="CAV_left" route="SW" depart="82" />
    <vehicle id="74" type="CAV_through" route="NS" depart="83" />
    <vehicle id="75" type="CAV_left" route="NE" depart="84" />
    <vehicle id="76" type="CAV_right" route="WS" depart="85" />
    <vehicle id="77" type="CAV_through" route="EW" depart="86" />
    <vehicle id="78" type="CAV_left" route="ES" depart="86" />
    <vehicle id="79" type="CAV_through" route="WE" depart="86" />
    <vehicle id="80" type="CAV_left" route="ES" depart="87" />
    <vehicle id="81" type="CAV_left" route="NE" depart="87" />
    <vehicle id="82" type="CAV_left" route="SW" depart="87" />
    <vehicle id="83" type="CAV_left" route="NE" depart="88" />
    <vehicle id="84" type="CAV_left" route="WN" depart="88" />
    <vehicle id="85" type="CAV_left" route="NE" depart="89" />
    <vehicle id="86" type="CAV_left" route="NE" depart="90" />
    <vehicle id="87" type="CAV_left" route="ES" depart="91" />
    <vehicle id="88" type="CAV_right" route="SE" depart="93" />
    <vehicle id="89" type="CAV_left" route="NE" depart="94" />
    <vehicle id="90" type="CAV_left" route="SW" depart="94" />
    <vehicle id="91" type="CAV_through" route="EW" depart="97" />
    <vehicle id="92" type="CAV_through" route="NS" depart="97" />
    <vehicle id="93" type="CAV_through" route="SN" depart="97" />
    <vehicle id="94" type="CAV_left" route="WN" depart="98" />
    <vehicle id="95" type="CAV_right" route="SE" depart="98" />
    <vehicle id="96" type="CAV_left" route="NE" depart="99" />
    <vehicle id="97" type="CAV_right" route="EN" depart="103" />
    <vehicle id="98" type="CAV_through" route="NS" depart="103" />
    <vehicle id="99" type="CAV_left" route="WN" depart="103" />
    <vehicle id="100" type="CAV_through" route="EW" depart="105" />
    <vehicle id="101" type="CAV_left" route="ES" depart="105" />
    <vehicle id="102" type="CAV_left" route="WN" depart="106" />
    <vehicle id="103" type="CAV_left" route="ES" depart="110" />
    <vehicle id="104" type="CAV_left" route="NE" depart="110" />
    <vehicle id="105" type="CAV_left" route="NE" depart="114" />
    <vehicle id="106" type="CAV_left" route="SW" depart="114" />
    <vehicle id="107" type="CAV_left" route="SW" depart="115" />
    <vehicle id="108" type="CAV_right" route="EN" depart="116" />
    <vehicle id="109" type="CAV_through" route="NS" depart="117" />
    <vehicle id="110" type="CAV_through" route="EW" depart="118" />
    <vehicle id="111" type="CAV_right" route="NW" depart="118" />
    <vehicle id="112" type="CAV_through" route="EW" depart="119" />
    <vehicle id="113" type="CAV_right" route="SE" depart="119" />
    <vehicle id="114" type="CAV_through" route="SN" depart="120" />
    <vehicle id="115" type="CAV_right" route="EN" depart="121" />
    <vehicle id="116" type="CAV_through" route="EW" depart="123" />
    <vehicle id="117" type="CAV_through" route="EW" depart="124" />
    <vehicle id="118" type="CAV_left" route="NE" depart="125" />
    <vehicle id="119" type="CAV_left" route="ES" depart="128" />
    <vehicle id="120" type="CAV_left" route="WN" depart="129" />
    <vehicle id="121" type="CAV_left" route="ES" depart="130" />
    <vehicle id="122" type="CAV_through" route="SN" depart="131" />
    <vehicle id="123" type="CAV_right" route="EN" depart="134" />
    <vehicle id="124" type="CAV_through" route="EW" depart="134" />
    <vehicle id="125" type="CAV_through" route="NS" depart="135" />
    <vehicle id="126" type="CAV_left" route="NE" depart="135" />
    <vehicle id="127" type="CAV_through" route="EW" depart="138" />
    <vehicle id="128" type="CAV_through" route="WE" depart="138" />
    <vehicle id="129" type="CAV_left" route="NE" depart="140" />
    <vehicle id="130" type="CAV_right" route="NW" depart="141" />
    <vehicle id="131" type="CAV_left" route="NE" depart="143" />
    <vehicle id="132" type="CAV_through" route="WE" depart="144" />
    <vehicle id="133" type="CAV_through" route="SN" depart="144" />
    <vehicle id="134" type="CAV_left" route="ES" depart="150" />
    <vehicle id="135" type="CAV_left" route="NE" depart="150" />
    <vehicle id="136" type="CAV_through" route="WE" depart="150" />
    <vehicle id="137" type="CAV_right" route="EN" depart="153" />
    <vehicle id="138" type="CAV_left" route="ES" depart="153" />
    <vehicle id="139" type="CAV_left" route="ES" depart="155" />
    <vehicle id="140" type="CAV_left" route="NE" depart="155" />
    <vehicle id="141" type="CAV_left" route="ES" depart="156" />
    <vehicle id="142" type="CAV_left" route="NE" depart="156" />
    <vehicle id="143" type="CAV_right" route="EN" depart="159" />
    <vehicle id="144" type="CAV_through" route="NS" depart="160" />
    <vehicle id="145" type="CAV_right" route="EN" depart="161" />
    <vehicle id="146" type="CAV_left" route="ES" depart="161" />
    <vehicle id="147" type="CAV_left" route="NE" depart="161" />
    <vehicle id="148" type="CAV_through" route="WE" depart="161" />
    <vehicle id="149" type="CAV_left" route="NE" depart="163" />
    <vehicle id="150" type="CAV_right" route="WS" depart="163" />
    <vehicle id="151" type="CAV_left" route="NE" depart="164" />
    <vehicle id="152" type="CAV_through" route="SN" depart="164" />
    <vehicle id="153" type="CAV_through" route="EW" depart="165" />
    <vehicle id="154" type="CAV_through" route="NS" depart="165" />
    <vehicle id="155" type="CAV_through" route="SN" depart="165" />
    <vehicle id="156" type="CAV_right" route="EN" depart="167" />
    <vehicle id="157" type="CAV_through" route="SN" depart="170" />
    <vehicle id="158" type="CAV_through" route="NS" depart="172" />
    <vehicle id="159" type="CAV_left" route="ES" depart="175" />
    <vehicle id="160" type="CAV_right" route="NW" depart="175" />
    <vehicle id="161" type="CAV_right" route="EN" depart="176" />
    <vehicle id="162" type="CAV_left" route="WN" depart="176" />
    <vehicle id="163" type="CAV_through" route="SN" depart="176" />
    <vehicle id="164" type="CAV_left" route="ES" depart="177" />
    <vehicle id="165" type="CAV_through" route="NS" depart="179" />
    <vehicle id="166" type="CAV_left" route="NE" depart="179" />
    <vehicle id="167" type="CAV_right" route="EN" depart="180" />
    <vehicle id="168" type="CAV_left" route="ES" depart="180" />
    <vehicle id="169" type="CAV_through" route="WE" depart="180" />
    <vehicle id="170" type="CAV_right" route="EN" depart="181" />
    <vehicle id="171" type="CAV_left" route="NE" depart="183" />
    <vehicle id="172" type="CAV_left" route="ES" depart="184" />
    <vehicle id="173" type="CAV_through" route="EW" depart="185" />
    <vehicle id="174" type="CAV_left" route="NE" depart="185" />
    <vehicle id="175" type="CAV_through" route="SN" depart="185" />
    <vehicle id="176" type="CAV_right" route="EN" depart="186" />
    <vehicle id="177" type="CAV_through" route="NS" depart="187" />
    <vehicle id="178" type="CAV_left" route="ES" depart="188" />
    <vehicle id="179" type="CAV_through" route="EW" depart="192" />
    <vehicle id="180" type="CAV_left" route="ES" depart="193" />
    <vehicle id="181" type="CAV_through" route="WE" depart="193" />
    <vehicle id="182" type="CAV_left" route="ES" depart="194" />
    <vehicle id="183" type="CAV_left" route="ES" depart="195" />
    <vehicle id="184" type="CAV_right" route="NW" depart="195" />
    <vehicle id="185" type="CAV_left" route="SW" depart="197" />
    <vehicle id="186" type="CAV_left" route="WN" depart="198" />
    <vehicle id="187" type="CAV_through" route="NS" depart="200" />
    <vehicle id="188" type="CAV_left" route="NE" depart="200" />
    <vehicle id="189" type="CAV_right" route="EN" depart="202" />
    <vehicle id="190" type="CAV_left" route="ES" depart="202" />
    <vehicle id="191" type="CAV_right" route="EN" depart="203" />
    <vehicle id="192" type="CAV_through" route="EW" depart="203" />
    <vehicle id="193" type="CAV_left" route="NE" depart="204" />
    <vehicle id="194" type="CAV_left" route="NE" depart="207" />
    <vehicle id="195" type="CAV_left" route="WN" depart="209" />
    <vehicle id="196" type="CAV_right" route="NW" depart="210" />
    <vehicle id="197" type="CAV_through" route="NS" depart="211" />
    <vehicle id="198" type="CAV_left" route="NE" depart="211" />
    <vehicle id="199" type="CAV_left" route="SW" depart="211" />
    <vehicle id="200" type="CAV_through" route="WE" depart="213" />
    <vehicle id="201" type="CAV_right" route="EN" depart="214" />
    <vehicle id="202" type="CAV_left" route="NE" depart="214" />
    <vehicle id="203" type="CAV_left" route="NE" depart="215" />
    <vehicle id="204" type="CAV_through" route="WE" depart="215" />
    <vehicle id="205" type="CAV_through" route="NS" depart="216" />
    <vehicle id="206" type="CAV_left" route="NE" depart="216" />
    <vehicle id="207" type="CAV_through" route="EW" depart="217" />
    <vehicle id="208" type="CAV_left" route="ES" depart="218" />
    <vehicle id="209" type="CAV_right" route="SE" depart="219" />
    <vehicle id="210" type="CAV_right" route="EN" depart="220" />
    <vehicle id="211" type="CAV_through" route="EW" depart="220" />
    <vehicle id="212" type="CAV_through" route="EW" depart="222" />
    <vehicle id="213" type="CAV_left" route="ES" depart="222" />
    <vehicle id="214" type="CAV_left" route="SW" depart="223" />
    <vehicle id="215" type="CAV_left" route="ES" depart="224" />
    <vehicle id="216" type="CAV_left" route="NE" depart="224" />
    <vehicle id="217" type="CAV_left" route="NE" depart="225" />
    <vehicle id="218" type="CAV_left" route="NE" depart="227" />
    <vehicle id="219" type="CAV_left" route="SW" depart="227" />
    <vehicle id="220" type="CAV_right" route="EN" depart="229" />
    <vehicle id="221" type="CAV_through" route="WE" depart="229" />
    <vehicle id="222" type="CAV_right" route="NW" depart="230" />
    <vehicle id="223" type="CAV_through" route="EW" depart="231" />
    <vehicle id="224" type="CAV_left" route="ES" depart="231" />
    <vehicle id="225" type="CAV_left" route="NE" depart="231" />
    <vehicle id="226" type="CAV_left" route="NE" depart="232" />
    <vehicle id="227" type="CAV_left" route="SW" depart="233" />
    <vehicle id="228" type="CAV_left" route="ES" depart="234" />
    <vehicle id="229" type="CAV_right" route="SE" depart="234" />
    <vehicle id="230" type="CAV_left" route="NE" depart="235" />
    <vehicle id="231" type="CAV_through" route="NS" depart="236" />
    <vehicle id="232" type="CAV_left" route="NE" depart="236" />
    <vehicle id="233" type="CAV_right" route="EN" depart="237" />
    <vehicle id="234" type="CAV_right" route="WS" depart="237" />
    <vehicle id="235" type="CAV_through" route="EW" depart="238" />
    <vehicle id="236" type="CAV_left" route="NE" depart="240" />
    <vehicle id="237" type="CAV_through" route="NS" depart="241" />
    <vehicle id="238" type="CAV_left" route="NE" depart="242" />
    <vehicle id="239" type="CAV_through" route="NS" depart="243" />
    <vehicle id="240" type="CAV_left" route="WN" depart="243" />
    <vehicle id="241" type="CAV_through" route="NS" depart="244" />
    <vehicle id="242" type="CAV_left" route="ES" depart="245" />
    <vehicle id="243" type="CAV_right" route="NW" depart="247" />
    <vehicle id="244" type="CAV_through" route="NS" depart="248" />
    <vehicle id="245" type="CAV_left" route="ES" depart="249" />
    <vehicle id="246" type="CAV_through" route="NS" depart="250" />
    <vehicle id="247" type="CAV_right" route="NW" depart="251" />
    <vehicle id="248" type="CAV_through" route="WE" depart="251" />
    <vehicle id="249" type="CAV_through" route="WE" depart="253" />
    <vehicle id="250" type="CAV_through" route="NS" depart="254" />
    <vehicle id="251" type="CAV_left" route="ES" depart="255" />
    <vehicle id="252" type="CAV_left" route="NE" depart="255" />
    <vehicle id="253" type="CAV_right" route="NW" depart="257" />
    <vehicle id="254" type="CAV_right" route="SE" depart="260" />
    <vehicle id="255" type="CAV_left" route="ES" depart="261" />
    <vehicle id="256" type="CAV_right" route="SE" depart="261" />
    <vehicle id="257" type="CAV_right" route="NW" depart="262" />
    <vehicle id="258" type="CAV_left" route="NE" depart="262" />
    <vehicle id="259" type="CAV_left" route="ES" depart="264" />
    <vehicle id="260" type="CAV_right" route="NW" depart="265" />
    <vehicle id="261" type="CAV_right" route="EN" depart="267" />
    <vehicle id="262" type="CAV_right" route="NW" depart="267" />
    <vehicle id="263" type="CAV_through" route="WE" depart="267" />
    <vehicle id="264" type="CAV_left" route="NE" depart="269" />
    <vehicle id="265" type="CAV_through" route="NS" depart="271" />
    <vehicle id="266" type="CAV_right" route="NW" depart="273" />
    <vehicle id="267" type="CAV_through" route="NS" depart="274" />
    <vehicle id="268" type="CAV_through" route="SN" depart="274" />
    <vehicle id="269" type="CAV_through" route="EW" depart="276" />
    <vehicle id="270" type="CAV_left" route="ES" depart="277" />
    <vehicle id="271" type="CAV_left" route="NE" depart="277" />
    <vehicle id="272" type="CAV_left" route="NE" depart="280" />
    <vehicle id="273" type="CAV_through" route="EW" depart="281" />
    <vehicle id="274" type="CAV_left" route="NE" depart="282" />
    <vehicle id="275" type="CAV_left" route="NE" depart="283" />
    <vehicle id="276" type="CAV_through" route="SN" depart="283" />
    <vehicle id="277" type="CAV_through" route="NS" depart="284" />
    <vehicle id="278" type="CAV_right" route="NW" depart="285" />
    <vehicle id="279" type="CAV_through" route="SN" depart="285" />
    <vehicle id="280" type="CAV_left" route="NE" depart="287" />
    <vehicle id="281" type="CAV_left" route="NE" depart="288" />
    <vehicle id="282" type="CAV_through" route="EW" depart="289" />
    <vehicle id="283" type="CAV_left" route="ES" depart="290" />
    <vehicle id="284" type="CAV_left" route="SW" depart="290" />
    <vehicle id="285" type="CAV_left" route="NE" depart="291" />
    <vehicle id="286" type="CAV_through" route="EW" depart="293" />
    <vehicle id="287" type="CAV_left" route="ES" depart="293" />
    <vehicle id="288" type="CAV_left" route="SW" depart="293" />
    <vehicle id="289" type="CAV_through" route="NS" depart="295" />
    <vehicle id="290" type="CAV_left" route="NE" depart="296" />
    <vehicle id="291" type="CAV_left" route="NE" depart="297" />
    <vehicle id="292" type="CAV_right" route="EN" depart="302" />
    <vehicle id="293" type="CAV_right" route="EN" depart="303" />
    <vehicle id="294" type="CAV_left" route="ES" depart="303" />
    <vehicle id="295" type="CAV_through" route="WE" depart="304" />
    <vehicle id="296" type="CAV_left" route="ES" depart="307" />
    <vehicle id="297" type="CAV_through" route="EW" depart="308" />
    <vehicle id="298" type="CAV_left" route="NE" depart="308" />
    <vehicle id="299" type="CAV_through" route="NS" depart="309" />
    <vehicle id="300" type="CAV_left" route="SW" depart="310" />
    <vehicle id="301" type="CAV_through" route="WE" depart="311" />
    <vehicle id="302" type="CAV_left" route="WN" depart="311" />
    <vehicle id="303" type="CAV_right" route="EN" depart="313" />
    <vehicle id="304" type="CAV_through" route="EW" depart="313" />
    <vehicle id="305" type="CAV_through" route="SN" depart="313" />
    <vehicle id="306" type="CAV_right" route="SE" depart="316" />
    <vehicle id="307" type="CAV_through" route="NS" depart="320" />
    <vehicle id="308" type="CAV_through" route="EW" depart="322" />
    <vehicle id="309" type="CAV_left" route="ES" depart="322" />
    <vehicle id="310" type="CAV_right" route="NW" depart="322" />
    <vehicle id="311" type="CAV_left" route="NE" depart="322" />
    <vehicle id="312" type="CAV_through" route="NS" depart="325" />
    <vehicle id="313" type="CAV_right" route="WS" depart="325" />
    <vehicle id="314" type="CAV_right" route="EN" depart="326" />
    <vehicle id="315" type="CAV_left" route="ES" depart="328" />
    <vehicle id="316" type="CAV_left" route="NE" depart="329" />
    <vehicle id="317" type="CAV_right" route="WS" depart="329" />
    <vehicle id="318" type="CAV_through" route="SN" depart="329" />
    <vehicle id="319" type="CAV_right" route="EN" depart="330" />
    <vehicle id="320" type="CAV_right" route="WS" depart="330" />
    <vehicle id="321" type="CAV_through" route="EW" depart="333" />
    <vehicle id="322" type="CAV_left" route="ES" depart="334" />
    <vehicle id="323" type="CAV_right" route="EN" depart="335" />
    <vehicle id="324" type="CAV_through" route="EW" depart="336" />
    <vehicle id="325" type="CAV_right" route="NW" depart="339" />
    <vehicle id="326" type="CAV_through" route="NS" depart="339" />
    <vehicle id="327" type="CAV_left" route="WN" depart="339" />
    <vehicle id="328" type="CAV_left" route="SW" depart="339" />
    <vehicle id="329" type="CAV_left" route="ES" depart="341" />
    <vehicle id="330" type="CAV_through" route="WE" depart="341" />
    <vehicle id="331" type="CAV_right" route="SE" depart="341" />
    <vehicle id="332" type="CAV_left" route="ES" depart="345" />
    <vehicle id="333" type="CAV_right" route="NW" depart="345" />
    <vehicle id="334" type="CAV_through" route="NS" depart="345" />
    <vehicle id="335" type="CAV_right" route="EN" depart="346" />
    <vehicle id="336" type="CAV_right" route="NW" depart="346" />
    <vehicle id="337" type="CAV_through" route="WE" depart="348" />
    <vehicle id="338" type="CAV_left" route="WN" depart="349" />
    <vehicle id="339" type="CAV_left" route="WN" depart="350" />
    <vehicle id="340" type="CAV_left" route="NE" depart="352" />
    <vehicle id="341" type="CAV_left" route="ES" depart="354" />
    <vehicle id="342" type="CAV_right" route="EN" depart="355" />
    <vehicle id="343" type="CAV_right" route="EN" depart="357" />
    <vehicle id="344" type="CAV_right" route="NW" depart="358" />
    <vehicle id="345" type="CAV_left" route="SW" depart="358" />
    <vehicle id="346" type="CAV_left" route="ES" depart="359" />
    <vehicle id="347" type="CAV_left" route="NE" depart="359" />
    <vehicle id="348" type="CAV_through" route="NS" depart="360" />
    <vehicle id="349" type="CAV_right" route="WS" depart="362" />
    <vehicle id="350" type="CAV_left" route="SW" depart="362" />
    <vehicle id="351" type="CAV_right" route="NW" depart="363" />
    <vehicle id="352" type="CAV_through" route="WE" depart="363" />
    <vehicle id="353" type="CAV_left" route="SW" depart="365" />
    <vehicle id="354" type="CAV_right" route="EN" depart="366" />
    <vehicle id="355" type="CAV_right" route="NW" depart="366" />
    <vehicle id="356" type="CAV_right" route="NW" depart="368" />
    <vehicle id="357" type="CAV_right" route="SE" depart="368" />
    <vehicle id="358" type="CAV_through" route="WE" depart="369" />
    <vehicle id="359" type="CAV_left" route="SW" depart="370" />
    <vehicle id="360" type="CAV_right" route="EN" depart="371" />
    <vehicle id="361" type="CAV_left" route="NE" depart="371" />
    <vehicle id="362" type="CAV_right" route="EN" depart="372" />
    <vehicle id="363" type="CAV_through" route="NS" depart="374" />
    <vehicle id="364" type="CAV_right" route="SE" depart="374" />
    <vehicle id="365" type="CAV_through" route="EW" depart="375" />
    <vehicle id="366" type="CAV_right" route="NW" depart="376" />
    <vehicle id="367" type="CAV_left" route="NE" depart="376" />
    <vehicle id="368" type="CAV_through" route="EW" depart="378" />
    <vehicle id="369" type="CAV_right" route="NW" depart="378" />
    <vehicle id="370" type="CAV_left" route="SW" depart="378" />
    <vehicle id="371" type="CAV_right" route="EN" depart="379" />
    <vehicle id="372" type="CAV_through" route="NS" depart="379" />
    <vehicle id="373" type="CAV_left" route="ES" depart="380" />
    <vehicle id="374" type="CAV_left" route="NE" depart="383" />
    <vehicle id="375" type="CAV_through" route="EW" depart="384" />
    <vehicle id="376" type="CAV_right" route="EN" depart="386" />
    <vehicle id="377" type="CAV_through" route="SN" depart="386" />
    <vehicle id="378" type="CAV_left" route="ES" depart="387" />
    <vehicle id="379" type="CAV_through" route="WE" depart="387" />
    <vehicle id="380" type="CAV_left" route="NE" depart="388" />
    <vehicle id="381" type="CAV_through" route="WE" depart="388" />
    <vehicle id="382" type="CAV_through" route="EW" depart="390" />
    <vehicle id="383" type="CAV_through" route="WE" depart="390" />
    <vehicle id="384" type="CAV_left" route="ES" depart="391" />
    <vehicle id="385" type="CAV_left" route="ES" depart="392" />
    <vehicle id="386" type="CAV_right" route="WS" depart="392" />
    <vehicle id="387" type="CAV_through" route="NS" depart="393" />
    <vehicle id="388" type="CAV_through" route="WE" depart="393" />
    <vehicle id="389" type="CAV_right" route="EN" depart="394" />
    <vehicle id="390" type="CAV_left" route="ES" depart="394" />
    <vehicle id="391" type="CAV_left" route="WN" depart="394" />
    <vehicle id="392" type="CAV_left" route="ES" depart="395" />
    <vehicle id="393" type="CAV_through" route="SN" depart="395" />
    <vehicle id="394" type="CAV_right" route="NW" depart="397" />
    <vehicle id="395" type="CAV_left" route="NE" depart="399" />
    <vehicle id="396" type="CAV_right" route="EN" depart="403" />
    <vehicle id="397" type="CAV_left" route="ES" depart="403" />
    <vehicle id="398" type="CAV_left" route="WN" depart="403" />
    <vehicle id="399" type="CAV_left" route="NE" depart="404" />
    <vehicle id="400" type="CAV_right" route="WS" depart="405" />
    <vehicle id="401" type="CAV_left" route="ES" depart="406" />
    <vehicle id="402" type="CAV_through" route="SN" depart="406" />
    <vehicle id="403" type="CAV_left" route="NE" depart="411" />
    <vehicle id="404" type="CAV_right" route="SE" depart="412" />
    <vehicle id="405" type="CAV_right" route="NW" depart="413" />
    <vehicle id="406" type="CAV_right" route="NW" depart="414" />
    <vehicle id="407" type="CAV_left" route="NE" depart="417" />
    <vehicle id="408" type="CAV_right" route="WS" depart="417" />
    <vehicle id="409" type="CAV_through" route="NS" depart="418" />
    <vehicle id="410" type="CAV_left" route="SW" depart="418" />
    <vehicle id="411" type="CAV_through" route="NS" depart="419" />
    <vehicle id="412" type="CAV_left" route="WN" depart="421" />
    <vehicle id="413" type="CAV_through" route="WE" depart="422" />
    <vehicle id="414" type="CAV_right" route="NW" depart="423" />
    <vehicle id="415" type="CAV_left" route="WN" depart="423" />
    <vehicle id="416" type="CAV_left" route="ES" depart="425" />
    <vehicle id="417" type="CAV_left" route="WN" depart="425" />
    <vehicle id="418" type="CAV_left" route="SW" depart="426" />
    <vehicle id="419" type="CAV_left" route="NE" depart="427" />
    <vehicle id="420" type="CAV_left" route="NE" depart="428" />
    <vehicle id="421" type="CAV_through" route="NS" depart="431" />
    <vehicle id="422" type="CAV_right" route="NW" depart="435" />
    <vehicle id="423" type="CAV_left" route="WN" depart="435" />
    <vehicle id="424" type="CAV_right" route="EN" depart="437" />
    <vehicle id="425" type="CAV_through" route="EW" depart="437" />
    <vehicle id="426" type="CAV_left" route="WN" depart="437" />
    <vehicle id="427" type="CAV_left" route="WN" depart="439" />
    <vehicle id="428" type="CAV_through" route="EW" depart="440" />
    <vehicle id="429" type="CAV_right" route="EN" depart="443" />
    <vehicle id="430" type="CAV_through" route="NS" depart="443" />
    <vehicle id="431" type="CAV_left" route="WN" depart="443" />
    <vehicle id="432" type="CAV_through" route="WE" depart="444" />
    <vehicle id="433" type="CAV_right" route="EN" depart="445" />
    <vehicle id="434" type="CAV_right" route="NW" depart="445" />