<?xml version="1.0" encoding="UTF-8"?>

<configuration >

    <input>
        <net-file value="Metro_Intersection.net.xml"/>
        <route-files value="Metro_Intersection.rou.xml"/>
        <additional-files value="Metro_Intersection.add.xml"/>
    </input>

    <time>
        <begin value="0"/>
    </time>

    <report>
        <verbose value="true"/>
        <no-step-log value="true"/>
    </report>

</configuration>