<nodes>
    <node id="east_input" x="250" y="0"/>
    <node id="east_interface" x="50" y="0"/>
    <node id="west_input" x="-250" y="0"/>
    <node id="west_interface" x="-50" y="0"/>
    <node id="south_input" x="0" y="-250"/>
    <node id="south_interface" x="0" y="-50"/>
    <node id="north_input" x="0" y="250"/>
    <node id="north_interface" x="0" y="50"/>
    <node id="SmartMetro" x="0" y="0" type="traffic_light"/>
</nodes>